<additional>
    <flow id="1016548847_19442635.qPKW.380" departSpeed="max" departPos="last" departLane="best" route="1016548847_19442635.qPKW.380" number="6" begin="22800" end="22860.0"/>
    <flow id="1016548860.217_971686034.qPKW.380" departSpeed="max" departPos="last" departLane="best" route="1016548860.217_971686034.qPKW.380" number="1" begin="22800" end="22860.0"/>
    <flow id="108162303_1141876515.qPKW.380" departSpeed="max" departPos="last" departLane="best" route="108162303_1141876515.qPKW.380" number="5" begin="22800" end="22860.0"/>
    <flow id="108162303_988591740#1.qPKW.380" departSpeed="max" departPos="last" departLane="best" route="108162303_988591740#1.qPKW.380" number="3" begin="22800" end="22860.0"/>
    <flow id="277208927#1-AddedOnRampEdge_1016548859.qPKW.380" departSpeed="max" departPos="last" departLane="best" route="277208927#1-AddedOnRampEdge_1016548859.qPKW.380" number="3" begin="22800" end="22860.0"/>
    <flow id="277208927#1-AddedOnRampEdge_971686034.qPKW.380" departSpeed="max" departPos="last" departLane="best" route="277208927#1-AddedOnRampEdge_971686034.qPKW.380" number="3" begin="22800" end="22860.0"/>
    <flow id="27828382_634155175.qPKW.380" departSpeed="max" departPos="last" departLane="best" route="27828382_634155175.qPKW.380" number="9" begin="22800" end="22860.0"/>
    <flow id="1016548847_19442635.qPKW.381.0" departSpeed="max" departPos="last" departLane="best" route="1016548847_19442635.qPKW.381.0" number="4" begin="22860.0" end="22920.0"/>
    <flow id="1016548860.217_988591740#1.qPKW.381.0" departSpeed="max" departPos="last" departLane="best" route="1016548860.217_988591740#1.qPKW.381.0" number="4" begin="22860.0" end="22920.0"/>
    <flow id="1070403831#1-AddedOnRampEdge_19440902.qPKW.381.0" departSpeed="max" departPos="last" departLane="best" route="1070403831#1-AddedOnRampEdge_19440902.qPKW.381.0" number="2" begin="22860.0" end="22920.0"/>
    <flow id="108162303_1141876515.qPKW.381.0" departSpeed="max" departPos="last" departLane="best" route="108162303_1141876515.qPKW.381.0" number="8" begin="22860.0" end="22920.0"/>
    <flow id="108162303_988591740#1.qPKW.381.0" departSpeed="max" departPos="last" departLane="best" route="108162303_988591740#1.qPKW.381.0" number="12" begin="22860.0" end="22920.0"/>
    <flow id="277208926_634155175.qPKW.381.0" departSpeed="max" departPos="last" departLane="best" route="277208926_634155175.qPKW.381.0" number="10" begin="22860.0" end="22920.0"/>
    <flow id="27828382_1040737038.qPKW.381.0" departSpeed="max" departPos="last" departLane="best" route="27828382_1040737038.qPKW.381.0" number="9" begin="22860.0" end="22920.0"/>
    <flow id="27828382_634155175.qPKW.381.0" departSpeed="max" departPos="last" departLane="best" route="27828382_634155175.qPKW.381.0" number="17" begin="22860.0" end="22920.0"/>
    <flow id="1016548847_19442635.qPKW.382.0" departSpeed="max" departPos="last" departLane="best" route="1016548847_19442635.qPKW.382.0" number="11" begin="22920.0" end="22980.0"/>
    <flow id="1070403831#1-AddedOnRampEdge_19442635.qPKW.382.0" departSpeed="max" departPos="last" departLane="best" route="1070403831#1-AddedOnRampEdge_19442635.qPKW.382.0" number="7" begin="22920.0" end="22980.0"/>
    <flow id="108162303_1141876515.qPKW.382.0" departSpeed="max" departPos="last" departLane="best" route="108162303_1141876515.qPKW.382.0" number="6" begin="22920.0" end="22980.0"/>
    <flow id="108162303_988591740#1.qPKW.382.0" departSpeed="max" departPos="last" departLane="best" route="108162303_988591740#1.qPKW.382.0" number="14" begin="22920.0" end="22980.0"/>
    <flow id="277208926_634155175.qPKW.382.0" departSpeed="max" departPos="last" departLane="best" route="277208926_634155175.qPKW.382.0" number="3" begin="22920.0" end="22980.0"/>
    <flow id="277208927#1-AddedOnRampEdge_1016548859.qPKW.382.0" departSpeed="max" departPos="last" departLane="best" route="277208927#1-AddedOnRampEdge_1016548859.qPKW.382.0" number="18" begin="22920.0" end="22980.0"/>
    <flow id="27828382_634155175.qPKW.382.0" departSpeed="max" departPos="last" departLane="best" route="27828382_634155175.qPKW.382.0" number="17" begin="22920.0" end="22980.0"/>
    <flow id="1016548847_19442635.qPKW.383.0" departSpeed="max" departPos="last" departLane="best" route="1016548847_19442635.qPKW.383.0" number="13" begin="22980.0" end="23040.0"/>
    <flow id="1070403831#1-AddedOnRampEdge_1040737038.qPKW.383.0" departSpeed="max" departPos="last" departLane="best" route="1070403831#1-AddedOnRampEdge_1040737038.qPKW.383.0" number="2" begin="22980.0" end="23040.0"/>
    <flow id="1070403831#1-AddedOnRampEdge_19442635.qPKW.383.0" departSpeed="max" departPos="last" departLane="best" route="1070403831#1-AddedOnRampEdge_19442635.qPKW.383.0" number="6" begin="22980.0" end="23040.0"/>
    <flow id="108162303_1141876515.qPKW.383.0" departSpeed="max" departPos="last" departLane="best" route="108162303_1141876515.qPKW.383.0" number="14" begin="22980.0" end="23040.0"/>
    <flow id="108162303_988591740#1.qPKW.383.0" departSpeed="max" departPos="last" departLane="best" route="108162303_988591740#1.qPKW.383.0" number="9" begin="22980.0" end="23040.0"/>
    <flow id="277208926_634155175.qPKW.383.0" departSpeed="max" departPos="last" departLane="best" route="277208926_634155175.qPKW.383.0" number="10" begin="22980.0" end="23040.0"/>
    <flow id="277208927#1-AddedOnRampEdge_1016548859.qPKW.383.0" departSpeed="max" departPos="last" departLane="best" route="277208927#1-AddedOnRampEdge_1016548859.qPKW.383.0" number="3" begin="22980.0" end="23040.0"/>
    <flow id="277208927#1-AddedOnRampEdge_971686034.qPKW.383.0" departSpeed="max" departPos="last" departLane="best" route="277208927#1-AddedOnRampEdge_971686034.qPKW.383.0" number="7" begin="22980.0" end="23040.0"/>
    <flow id="27828382_634155175.qPKW.383.0" departSpeed="max" departPos="last" departLane="best" route="27828382_634155175.qPKW.383.0" number="20" begin="22980.0" end="23040.0"/>
    <flow id="1016548847_19442635.qPKW.384.0" departSpeed="max" departPos="last" departLane="best" route="1016548847_19442635.qPKW.384.0" number="10" begin="23040.0" end="23100.0"/>
    <flow id="1016548860.217_988591740#1.qPKW.384.0" departSpeed="max" departPos="last" departLane="best" route="1016548860.217_988591740#1.qPKW.384.0" number="2" begin="23040.0" end="23100.0"/>
    <flow id="108162303_988591740#1.qPKW.384.0" departSpeed="max" departPos="last" departLane="best" route="108162303_988591740#1.qPKW.384.0" number="12" begin="23040.0" end="23100.0"/>
    <flow id="277208926_634155175.qPKW.384.0" departSpeed="max" departPos="last" departLane="best" route="277208926_634155175.qPKW.384.0" number="29" begin="23040.0" end="23100.0"/>
    <flow id="277208927#1-AddedOnRampEdge_988591740#1.qPKW.384.0" departSpeed="max" departPos="last" departLane="best" route="277208927#1-AddedOnRampEdge_988591740#1.qPKW.384.0" number="4" begin="23040.0" end="23100.0"/>
    <flow id="27828382_1040737038.qPKW.384.0" departSpeed="max" departPos="last" departLane="best" route="27828382_1040737038.qPKW.384.0" number="9" begin="23040.0" end="23100.0"/>
    <flow id="27828382_634155175.qPKW.384.0" departSpeed="max" departPos="last" departLane="best" route="27828382_634155175.qPKW.384.0" number="13" begin="23040.0" end="23100.0"/>
    <flow id="1016548847_19442635.qPKW.385.0" departSpeed="max" departPos="last" departLane="best" route="1016548847_19442635.qPKW.385.0" number="14" begin="23100.0" end="23160.0"/>
    <flow id="1070403831#1-AddedOnRampEdge_1040737038.qPKW.385.0" departSpeed="max" departPos="last" departLane="best" route="1070403831#1-AddedOnRampEdge_1040737038.qPKW.385.0" number="4" begin="23100.0" end="23160.0"/>
    <flow id="1070403831#1-AddedOnRampEdge_19442635.qPKW.385.0" departSpeed="max" departPos="last" departLane="best" route="1070403831#1-AddedOnRampEdge_19442635.qPKW.385.0" number="9" begin="23100.0" end="23160.0"/>
    <flow id="108162303_1141876515.qPKW.385.0" departSpeed="max" departPos="last" departLane="best" route="108162303_1141876515.qPKW.385.0" number="6" begin="23100.0" end="23160.0"/>
    <flow id="108162303_988591740#1.qPKW.385.0" departSpeed="max" departPos="last" departLane="best" route="108162303_988591740#1.qPKW.385.0" number="19" begin="23100.0" end="23160.0"/>
    <flow id="277208926_634155175.qPKW.385.0" departSpeed="max" departPos="last" departLane="best" route="277208926_634155175.qPKW.385.0" number="13" begin="23100.0" end="23160.0"/>
    <flow id="277208927#1-AddedOnRampEdge_1016548859.qPKW.385.0" departSpeed="max" departPos="last" departLane="best" route="277208927#1-AddedOnRampEdge_1016548859.qPKW.385.0" number="8" begin="23100.0" end="23160.0"/>
    <flow id="27828382_634155175.qPKW.385.0" departSpeed="max" departPos="last" departLane="best" route="27828382_634155175.qPKW.385.0" number="9" begin="23100.0" end="23160.0"/>
    <flow id="1016548847_19442635.qPKW.386.0" departSpeed="max" departPos="last" departLane="best" route="1016548847_19442635.qPKW.386.0" number="12" begin="23160.0" end="23220.0"/>
    <flow id="1016548860.217_971686034.qPKW.386.0" departSpeed="max" departPos="last" departLane="best" route="1016548860.217_971686034.qPKW.386.0" number="3" begin="23160.0" end="23220.0"/>
    <flow id="1070403831#1-AddedOnRampEdge_19442635.qPKW.386.0" departSpeed="max" departPos="last" departLane="best" route="1070403831#1-AddedOnRampEdge_19442635.qPKW.386.0" number="2" begin="23160.0" end="23220.0"/>
    <flow id="108162303_971686034.qPKW.386.0" departSpeed="max" departPos="last" departLane="best" route="108162303_971686034.qPKW.386.0" number="1" begin="23160.0" end="23220.0"/>
    <flow id="108162303_988591740#1.qPKW.386.0" departSpeed="max" departPos="last" departLane="best" route="108162303_988591740#1.qPKW.386.0" number="14" begin="23160.0" end="23220.0"/>
    <flow id="277208926_634155175.qPKW.386.0" departSpeed="max" departPos="last" departLane="best" route="277208926_634155175.qPKW.386.0" number="2" begin="23160.0" end="23220.0"/>
    <flow id="27828382_634155175.qPKW.386.0" departSpeed="max" departPos="last" departLane="best" route="27828382_634155175.qPKW.386.0" number="24" begin="23160.0" end="23220.0"/>
    <flow id="1016548847_19442635.qPKW.387.0" departSpeed="max" departPos="last" departLane="best" route="1016548847_19442635.qPKW.387.0" number="4" begin="23220.0" end="23280.0"/>
    <flow id="1016548860.217_988591740#1.qPKW.387.0" departSpeed="max" departPos="last" departLane="best" route="1016548860.217_988591740#1.qPKW.387.0" number="3" begin="23220.0" end="23280.0"/>
    <flow id="108162303_1141876515.qPKW.387.0" departSpeed="max" departPos="last" departLane="best" route="108162303_1141876515.qPKW.387.0" number="11" begin="23220.0" end="23280.0"/>
    <flow id="108162303_988591740#1.qPKW.387.0" departSpeed="max" departPos="last" departLane="best" route="108162303_988591740#1.qPKW.387.0" number="12" begin="23220.0" end="23280.0"/>
    <flow id="277208926_634155175.qPKW.387.0" departSpeed="max" departPos="last" departLane="best" route="277208926_634155175.qPKW.387.0" number="19" begin="23220.0" end="23280.0"/>
    <flow id="27828382_1040737038.qPKW.387.0" departSpeed="max" departPos="last" departLane="best" route="27828382_1040737038.qPKW.387.0" number="2" begin="23220.0" end="23280.0"/>
    <flow id="27828382_634155175.qPKW.387.0" departSpeed="max" departPos="last" departLane="best" route="27828382_634155175.qPKW.387.0" number="17" begin="23220.0" end="23280.0"/>
    <flow id="1016548847_19442635.qPKW.388.0" departSpeed="max" departPos="last" departLane="best" route="1016548847_19442635.qPKW.388.0" number="11" begin="23280.0" end="23340.0"/>
    <flow id="1070403831#1-AddedOnRampEdge_1040737038.qPKW.388.0" departSpeed="max" departPos="last" departLane="best" route="1070403831#1-AddedOnRampEdge_1040737038.qPKW.388.0" number="9" begin="23280.0" end="23340.0"/>
    <flow id="108162303_988591740#1.qPKW.388.0" departSpeed="max" departPos="last" departLane="best" route="108162303_988591740#1.qPKW.388.0" number="13" begin="23280.0" end="23340.0"/>
    <flow id="277208926_634155175.qPKW.388.0" departSpeed="max" departPos="last" departLane="best" route="277208926_634155175.qPKW.388.0" number="12" begin="23280.0" end="23340.0"/>
    <flow id="277208927#1-AddedOnRampEdge_1016548859.qPKW.388.0" departSpeed="max" departPos="last" departLane="best" route="277208927#1-AddedOnRampEdge_1016548859.qPKW.388.0" number="1" begin="23280.0" end="23340.0"/>
    <flow id="277208927#1-AddedOnRampEdge_988591740#1.qPKW.388.0" departSpeed="max" departPos="last" departLane="best" route="277208927#1-AddedOnRampEdge_988591740#1.qPKW.388.0" number="2" begin="23280.0" end="23340.0"/>
    <flow id="27828382_1040737038.qPKW.388.0" departSpeed="max" departPos="last" departLane="best" route="27828382_1040737038.qPKW.388.0" number="6" begin="23280.0" end="23340.0"/>
    <flow id="27828382_634155175.qPKW.388.0" departSpeed="max" departPos="last" departLane="best" route="27828382_634155175.qPKW.388.0" number="14" begin="23280.0" end="23340.0"/>
    <flow id="1016548847_19442635.qPKW.389.0" departSpeed="max" departPos="last" departLane="best" route="1016548847_19442635.qPKW.389.0" number="10" begin="23340.0" end="23400.0"/>
    <flow id="1070403831#1-AddedOnRampEdge_1040737038.qPKW.389.0" departSpeed="max" departPos="last" departLane="best" route="1070403831#1-AddedOnRampEdge_1040737038.qPKW.389.0" number="2" begin="23340.0" end="23400.0"/>
    <flow id="1070403831#1-AddedOnRampEdge_19442635.qPKW.389.0" departSpeed="max" departPos="last" departLane="best" route="1070403831#1-AddedOnRampEdge_19442635.qPKW.389.0" number="6" begin="23340.0" end="23400.0"/>
    <flow id="108162303_1141876515.qPKW.389.0" departSpeed="max" departPos="last" departLane="best" route="108162303_1141876515.qPKW.389.0" number="11" begin="23340.0" end="23400.0"/>
    <flow id="108162303_988591740#1.qPKW.389.0" departSpeed="max" departPos="last" departLane="best" route="108162303_988591740#1.qPKW.389.0" number="11" begin="23340.0" end="23400.0"/>
    <flow id="277208926_634155175.qPKW.389.0" departSpeed="max" departPos="last" departLane="best" route="277208926_634155175.qPKW.389.0" number="8" begin="23340.0" end="23400.0"/>
    <flow id="277208927#1-AddedOnRampEdge_1016548859.qPKW.389.0" departSpeed="max" departPos="last" departLane="best" route="277208927#1-AddedOnRampEdge_1016548859.qPKW.389.0" number="9" begin="23340.0" end="23400.0"/>
    <flow id="27828382_634155175.qPKW.389.0" departSpeed="max" departPos="last" departLane="best" route="27828382_634155175.qPKW.389.0" number="16" begin="23340.0" end="23400.0"/>
    <flow id="1016548847_19442635.qPKW.390.0" departSpeed="max" departPos="last" departLane="best" route="1016548847_19442635.qPKW.390.0" number="10" begin="23400.0" end="23460.0"/>
    <flow id="1070403831#1-AddedOnRampEdge_1040737038.qPKW.390.0" departSpeed="max" departPos="last" departLane="best" route="1070403831#1-AddedOnRampEdge_1040737038.qPKW.390.0" number="4" begin="23400.0" end="23460.0"/>
    <flow id="1070403831#1-AddedOnRampEdge_19442635.qPKW.390.0" departSpeed="max" departPos="last" departLane="best" route="1070403831#1-AddedOnRampEdge_19442635.qPKW.390.0" number="2" begin="23400.0" end="23460.0"/>
    <flow id="108162303_1141876515.qPKW.390.0" departSpeed="max" departPos="last" departLane="best" route="108162303_1141876515.qPKW.390.0" number="7" begin="23400.0" end="23460.0"/>
    <flow id="108162303_988591740#1.qPKW.390.0" departSpeed="max" departPos="last" departLane="best" route="108162303_988591740#1.qPKW.390.0" number="6" begin="23400.0" end="23460.0"/>
    <flow id="277208926_634155175.qPKW.390.0" departSpeed="max" departPos="last" departLane="best" route="277208926_634155175.qPKW.390.0" number="12" begin="23400.0" end="23460.0"/>
    <flow id="277208927#1-AddedOnRampEdge_1016548859.qPKW.390.0" departSpeed="max" departPos="last" departLane="best" route="277208927#1-AddedOnRampEdge_1016548859.qPKW.390.0" number="1" begin="23400.0" end="23460.0"/>
    <flow id="27828382_634155175.qPKW.390.0" departSpeed="max" departPos="last" departLane="best" route="27828382_634155175.qPKW.390.0" number="5" begin="23400.0" end="23460.0"/>
</additional>
