<?xml version="1.0" encoding="UTF-8"?>

<!-- generated on 2025-04-19 13:24:20 by Eclipse SUMO netedit Version v1_21_0+1830-1621789eca8
<neteditConfiguration xmlns:xsi="http://www.w3.org/2001/XMLSchema-instance" xsi:noNamespaceSchemaLocation="http://sumo.dlr.de/xsd/neteditConfiguration.xsd">

    <input>
        <sumo-net-file value="/Users/ywan1649/Documents/03_Research/Collaborations/ENACTED/cav-sumo/sumo_scenarios/roosevelt-sol/roosevelt.net.xml"/>
    </input>

    <output>
        <output-file value="/Users/ywan1649/Documents/03_Research/Collaborations/ENACTED/cav-sumo/sumo_scenarios/roosevelt-sol/roosevelt.net.xml"/>
    </output>

    <processing>
        <geometry.min-radius.fix.railways value="false"/>
        <geometry.max-grade.fix value="false"/>
        <offset.disable-normalization value="true"/>
        <lefthand value="0"/>
    </processing>

    <junctions>
        <no-turnarounds value="true"/>
        <junctions.corner-detail value="5"/>
        <junctions.limit-turn-speed value="5.50"/>
        <rectangular-lane-cut value="0"/>
    </junctions>

    <pedestrian>
        <walkingareas value="0"/>
    </pedestrian>

</neteditConfiguration>
-->

<net version="1.20" junctionCornerDetail="5" limitTurnSpeed="5.50" xmlns:xsi="http://www.w3.org/2001/XMLSchema-instance" xsi:noNamespaceSchemaLocation="http://sumo.dlr.de/xsd/net_file.xsd">

    <location netOffset="-446704.39,-4634169.30" convBoundary="-307.23,283.66,2476.33,1447.37" origBoundary="-87.675939,41.841510,-87.622355,41.886405" projParameter="+proj=utm +zone=16 +ellps=WGS84 +datum=WGS84 +units=m +no_defs"/>

    <type id="highway.residential" priority="3" numLanes="1" speed="13.89" oneway="1"/>
    <type id="highway.secondary" priority="11" numLanes="1" speed="27.78" oneway="1"/>
    <type id="highway.secondary_link" priority="6" numLanes="1" speed="22.22" oneway="1"/>
    <type id="highway.service" priority="1" numLanes="1" speed="5.56" allow="pedestrian delivery bicycle" oneway="1"/>
    <type id="highway.tertiary" priority="10" numLanes="1" speed="22.22" oneway="1"/>
    <type id="highway.unclassified" priority="4" numLanes="1" speed="13.89" oneway="1"/>

    <edge id=":10126454523_0" function="internal">
        <lane id=":10126454523_0_0" index="0" speed="13.41" length="0.10" shape="1231.17,1271.96 1231.17,1271.96"/>
        <lane id=":10126454523_0_1" index="1" speed="13.41" length="0.10" shape="1227.97,1271.94 1227.97,1271.94"/>
    </edge>
    <edge id=":1655457009_0" function="internal">
        <lane id=":1655457009_0_0" index="0" speed="7.32" length="11.75" shape="259.60,1077.58 255.73,1077.85 252.95,1078.85 251.26,1080.57 250.67,1083.01"/>
    </edge>
    <edge id=":1655457009_1" function="internal">
        <lane id=":1655457009_1_0" index="0" speed="27.78" length="27.28" shape="259.65,1074.38 232.39,1074.47"/>
        <lane id=":1655457009_1_1" index="1" speed="27.78" length="27.28" shape="259.69,1071.18 232.40,1071.27"/>
    </edge>
    <edge id=":1655457009_3" function="internal">
        <lane id=":1655457009_3_0" index="0" speed="10.46" length="6.44" shape="259.74,1067.98 253.39,1066.91"/>
    </edge>
    <edge id=":1655457009_17" function="internal">
        <lane id=":1655457009_17_0" index="0" speed="10.46" length="18.56" shape="253.39,1066.91 253.08,1066.86 248.37,1063.82 245.61,1058.84 244.78,1051.93"/>
    </edge>
    <edge id=":1655457009_4" function="internal">
        <lane id=":1655457009_4_0" index="0" speed="6.60" length="9.34" shape="254.38,1052.11 254.68,1054.74 255.70,1056.63 257.43,1057.77 259.88,1058.18"/>
    </edge>
    <edge id=":1655457009_5" function="internal">
        <lane id=":1655457009_5_0" index="0" speed="27.78" length="31.16" shape="254.38,1052.11 253.71,1061.86 252.48,1069.44 251.28,1076.07 250.67,1083.01"/>
        <lane id=":1655457009_5_1" index="1" speed="27.78" length="31.16" shape="251.18,1052.05 250.51,1061.80 249.28,1069.38 248.08,1076.02 247.47,1082.96"/>
    </edge>
    <edge id=":1655457009_7" function="internal">
        <lane id=":1655457009_7_0" index="0" speed="11.12" length="10.02" shape="247.98,1051.99 246.87,1060.45 246.21,1061.79"/>
    </edge>
    <edge id=":1655457009_18" function="internal">
        <lane id=":1655457009_18_0" index="0" speed="11.12" length="18.04" shape="246.21,1061.79 243.91,1066.48 239.08,1070.09 232.40,1071.27"/>
    </edge>
    <edge id=":1655457009_8" function="internal">
        <lane id=":1655457009_8_0" index="0" speed="7.46" length="11.97" shape="232.46,1057.49 236.41,1057.12 239.25,1056.06 240.98,1054.31 241.58,1051.87"/>
    </edge>
    <edge id=":1655457009_9" function="internal">
        <lane id=":1655457009_9_0" index="0" speed="27.78" length="27.39" shape="232.46,1057.49 259.88,1058.18"/>
        <lane id=":1655457009_9_1" index="1" speed="27.78" length="27.39" shape="232.45,1060.69 259.83,1061.38"/>
        <lane id=":1655457009_9_2" index="2" speed="27.78" length="27.39" shape="232.43,1063.89 259.78,1064.58"/>
    </edge>
    <edge id=":1655457009_12" function="internal">
        <lane id=":1655457009_12_0" index="0" speed="10.39" length="7.93" shape="232.42,1067.09 239.10,1068.05 240.10,1068.68"/>
    </edge>
    <edge id=":1655457009_19" function="internal">
        <lane id=":1655457009_19_0" index="0" speed="10.39" length="17.13" shape="240.10,1068.68 243.83,1071.01 246.62,1075.98 247.47,1082.96"/>
    </edge>
    <edge id=":1655457009_13" function="internal">
        <lane id=":1655457009_13_0" index="0" speed="7.17" length="11.30" shape="237.88,1082.82 237.58,1079.17 236.57,1076.57 234.84,1075.00 232.39,1074.47"/>
    </edge>
    <edge id=":1655457009_14" function="internal">
        <lane id=":1655457009_14_0" index="0" speed="27.78" length="31.19" shape="237.88,1082.82 238.53,1073.06 239.75,1065.47 240.96,1058.82 241.58,1051.87"/>
        <lane id=":1655457009_14_1" index="1" speed="27.78" length="31.19" shape="241.08,1082.86 241.72,1073.11 242.94,1065.52 244.16,1058.88 244.78,1051.93"/>
    </edge>
    <edge id=":1655457009_16" function="internal">
        <lane id=":1655457009_16_0" index="0" speed="10.92" length="9.38" shape="244.28,1082.91 245.35,1074.81 245.90,1073.74"/>
    </edge>
    <edge id=":1655457009_20" function="internal">
        <lane id=":1655457009_20_0" index="0" speed="10.92" length="17.92" shape="245.90,1073.74 248.29,1069.06 253.11,1065.65 259.78,1064.58"/>
    </edge>
    <edge id=":1679536346_0" function="internal">
        <lane id=":1679536346_0_0" index="0" speed="27.78" length="7.93" shape="250.42,1099.73 250.35,1107.64"/>
        <lane id=":1679536346_0_1" index="1" speed="27.78" length="7.93" shape="247.22,1099.68 247.15,1107.64"/>
    </edge>
    <edge id=":1679536346_2" function="internal">
        <lane id=":1679536346_2_0" index="0" speed="27.78" length="8.57" shape="240.76,1107.63 240.26,1105.14 239.17,1103.58 238.08,1102.02 237.62,1099.53"/>
        <lane id=":1679536346_2_1" index="1" speed="27.78" length="8.57" shape="243.96,1107.63 243.46,1105.16 242.37,1103.61 241.28,1102.05 240.82,1099.58"/>
        <lane id=":1679536346_2_2" index="2" speed="27.78" length="8.57" shape="243.96,1107.63 244.02,1099.63"/>
    </edge>
    <edge id=":1961538051_0" function="internal">
        <lane id=":1961538051_0_0" index="0" speed="6.50" length="9.04" shape="1435.28,1085.48 1432.82,1085.81 1431.06,1086.84 1430.00,1088.58 1429.63,1091.04"/>
    </edge>
    <edge id=":1961538051_1" function="internal">
        <lane id=":1961538051_1_0" index="0" speed="27.78" length="14.44" shape="1435.28,1085.48 1420.85,1085.41"/>
        <lane id=":1961538051_1_1" index="1" speed="27.78" length="14.44" shape="1435.31,1082.29 1420.85,1082.21"/>
    </edge>
    <edge id=":1961538051_3" function="internal">
        <lane id=":1961538051_3_0" index="0" speed="6.49" length="9.03" shape="1426.43,1091.02 1426.10,1088.56 1425.06,1086.81 1423.31,1085.76 1420.85,1085.41"/>
    </edge>
    <edge id=":1961538074_0" function="internal">
        <lane id=":1961538074_0_0" index="0" speed="6.48" length="9.03" shape="1430.05,1062.43 1430.38,1064.89 1431.42,1066.64 1433.16,1067.69 1435.62,1068.04"/>
    </edge>
    <edge id=":1961538074_1" function="internal">
        <lane id=":1961538074_1_0" index="0" speed="7.41" length="11.82" shape="1421.21,1071.34 1423.65,1070.76 1425.40,1069.07 1426.47,1066.29 1426.85,1062.40"/>
    </edge>
    <edge id=":1961538074_2" function="internal">
        <lane id=":1961538074_2_0" index="0" speed="27.78" length="14.70" shape="1421.21,1071.34 1435.62,1071.24"/>
        <lane id=":1961538074_2_1" index="1" speed="27.78" length="14.70" shape="1421.21,1071.34 1425.53,1071.79 1428.42,1072.86 1431.30,1073.95 1435.63,1074.44"/>
        <lane id=":1961538074_2_2" index="2" speed="27.78" length="14.70" shape="1421.25,1074.54 1425.57,1074.99 1428.44,1076.06 1431.32,1077.15 1435.64,1077.64"/>
    </edge>
    <edge id=":2231157628_0" function="internal">
        <lane id=":2231157628_0_0" index="0" speed="22.22" length="8.40" shape="1360.12,1038.30 1360.60,1040.77 1361.69,1042.31 1362.78,1043.86 1363.26,1046.32"/>
        <lane id=":2231157628_0_1" index="1" speed="22.22" length="8.40" shape="1360.12,1038.30 1360.06,1046.30"/>
    </edge>
    <edge id=":2231157628_2" function="internal">
        <lane id=":2231157628_2_0" index="0" speed="22.22" length="8.00" shape="1356.86,1046.28 1356.92,1038.28"/>
    </edge>
    <edge id=":4332963517_0" function="internal">
        <lane id=":4332963517_0_0" index="0" speed="27.78" length="8.18" shape="195.32,1059.25 197.68,1059.03 199.26,1058.50 200.84,1057.95 203.21,1057.68"/>
        <lane id=":4332963517_0_1" index="1" speed="27.78" length="8.18" shape="195.26,1062.44 197.65,1062.23 199.24,1061.70 200.84,1061.15 203.23,1060.88"/>
        <lane id=":4332963517_0_2" index="2" speed="27.78" length="8.18" shape="195.26,1062.44 197.66,1062.73 199.26,1063.30 200.85,1063.85 203.25,1064.08"/>
        <lane id=":4332963517_0_3" index="3" speed="27.78" length="8.18" shape="195.21,1065.64 197.63,1065.93 199.24,1066.50 200.85,1067.05 203.27,1067.28"/>
    </edge>
    <edge id=":4332963519_0" function="internal">
        <lane id=":4332963519_0_0" index="0" speed="27.78" length="8.40" shape="169.11,1074.19 166.66,1074.68 165.12,1075.77 163.59,1076.87 161.13,1077.38"/>
        <lane id=":4332963519_0_1" index="1" speed="27.78" length="8.40" shape="169.11,1074.19 161.12,1074.18"/>
        <lane id=":4332963519_0_2" index="2" speed="27.78" length="8.40" shape="169.13,1070.99 161.12,1070.98"/>
        <lane id=":4332963519_0_3" index="3" speed="27.78" length="8.40" shape="169.13,1070.99 166.66,1070.48 165.12,1069.37 163.58,1068.27 161.11,1067.78"/>
    </edge>
    <edge id=":4332963520_0" function="internal">
        <lane id=":4332963520_0_0" index="0" speed="27.78" length="8.21" shape="290.69,1076.25 288.29,1076.49 286.69,1077.03 285.08,1077.57 282.68,1077.82"/>
        <lane id=":4332963520_0_1" index="1" speed="27.78" length="8.21" shape="290.70,1073.05 288.30,1073.29 286.70,1073.83 285.09,1074.37 282.69,1074.62"/>
        <lane id=":4332963520_0_2" index="2" speed="27.78" length="8.21" shape="290.71,1069.85 288.31,1070.09 286.71,1070.63 285.10,1071.17 282.71,1071.42"/>
        <lane id=":4332963520_0_3" index="3" speed="27.78" length="8.21" shape="290.71,1069.85 288.32,1069.59 286.71,1069.03 285.11,1068.47 282.72,1068.22"/>
    </edge>
    <edge id=":4334495395_0" function="internal">
        <lane id=":4334495395_0_0" index="0" speed="27.78" length="8.18" shape="1167.90,1067.89 1170.26,1067.70 1171.84,1067.19 1173.43,1066.65 1175.79,1066.41"/>
        <lane id=":4334495395_0_1" index="1" speed="27.78" length="8.18" shape="1167.81,1071.09 1170.19,1070.90 1171.79,1070.39 1173.39,1069.85 1175.78,1069.61"/>
        <lane id=":4334495395_0_2" index="2" speed="27.78" length="8.18" shape="1167.81,1071.09 1170.20,1071.40 1171.79,1071.99 1173.38,1072.55 1175.77,1072.81"/>
        <lane id=":4334495395_0_3" index="3" speed="27.78" length="8.18" shape="1167.72,1074.29 1170.13,1074.60 1171.74,1075.19 1173.34,1075.75 1175.76,1076.01"/>
    </edge>
    <edge id=":4334495397_0" function="internal">
        <lane id=":4334495397_0_0" index="0" speed="27.78" length="8.21" shape="1309.56,1069.95 1311.95,1069.71 1313.54,1069.16 1315.14,1068.60 1317.53,1068.34"/>
        <lane id=":4334495397_0_1" index="1" speed="27.78" length="8.21" shape="1309.55,1073.15 1311.95,1072.91 1313.55,1072.36 1315.15,1071.80 1317.54,1071.54"/>
        <lane id=":4334495397_0_2" index="2" speed="27.78" length="8.21" shape="1309.54,1076.35 1311.94,1076.11 1313.55,1075.56 1315.15,1075.00 1317.56,1074.74"/>
        <lane id=":4334495397_0_3" index="3" speed="27.78" length="8.21" shape="1309.54,1076.35 1311.95,1076.61 1313.56,1077.16 1315.16,1077.70 1317.57,1077.94"/>
    </edge>
    <edge id=":4334495399_0" function="internal">
        <lane id=":4334495399_0_0" index="0" speed="27.78" length="8.20" shape="1024.75,1084.08 1022.34,1084.31 1020.72,1084.83 1019.10,1085.35 1016.69,1085.55"/>
        <lane id=":4334495399_0_1" index="1" speed="27.78" length="8.20" shape="1024.79,1080.88 1022.38,1081.11 1020.77,1081.63 1019.16,1082.15 1016.76,1082.35"/>
        <lane id=":4334495399_0_2" index="2" speed="27.78" length="8.20" shape="1024.82,1077.68 1022.43,1077.91 1020.83,1078.43 1019.22,1078.95 1016.83,1079.15"/>
        <lane id=":4334495399_0_3" index="3" speed="27.78" length="8.20" shape="1024.82,1077.68 1022.44,1077.41 1020.86,1076.84 1019.28,1076.25 1016.90,1075.95"/>
    </edge>
    <edge id=":4334657981_0" function="internal">
        <lane id=":4334657981_0_0" index="0" speed="3.65" length="4.67" shape="1499.22,588.56 1500.03,587.36 1500.83,586.97 1501.63,587.38 1502.42,588.58"/>
    </edge>
    <edge id=":4334657982_0" function="internal">
        <lane id=":4334657982_0_0" index="0" speed="27.78" length="8.44" shape="1502.39,1024.96 1502.83,1027.38 1503.90,1028.89 1504.99,1030.41 1505.49,1032.83"/>
        <lane id=":4334657982_0_1" index="1" speed="27.78" length="8.44" shape="1499.19,1024.88 1499.63,1027.32 1500.70,1028.85 1501.79,1030.39 1502.29,1032.83"/>
        <lane id=":4334657982_0_2" index="2" speed="27.78" length="8.44" shape="1499.19,1024.88 1499.09,1032.83"/>
    </edge>
    <edge id=":4334657982_3" function="internal">
        <lane id=":4334657982_3_0" index="0" speed="27.78" length="8.07" shape="1492.69,1032.82 1492.79,1024.72"/>
        <lane id=":4334657982_3_1" index="1" speed="27.78" length="8.07" shape="1495.89,1032.82 1495.99,1024.80"/>
    </edge>
    <edge id=":4334657987_0" function="internal">
        <lane id=":4334657987_0_0" index="0" speed="27.78" length="8.21" shape="1412.95,1085.42 1410.55,1085.68 1408.95,1086.23 1407.34,1086.78 1404.94,1087.02"/>
        <lane id=":4334657987_0_1" index="1" speed="27.78" length="8.21" shape="1412.95,1082.22 1410.55,1082.48 1408.95,1083.03 1407.35,1083.58 1404.95,1083.82"/>
        <lane id=":4334657987_0_2" index="2" speed="27.78" length="8.21" shape="1412.95,1082.22 1410.55,1081.98 1408.95,1081.43 1407.35,1080.88 1404.96,1080.62"/>
    </edge>
    <edge id=":4337282454_0" function="internal">
        <lane id=":4337282454_0_0" index="0" speed="27.78" length="8.55" shape="117.06,1100.99 116.56,1098.52 115.46,1096.98 114.37,1095.43 113.88,1092.96"/>
        <lane id=":4337282454_0_1" index="1" speed="27.78" length="8.55" shape="120.26,1100.99 119.76,1098.53 118.66,1096.98 117.57,1095.44 117.08,1092.98"/>
        <lane id=":4337282454_0_2" index="2" speed="27.78" length="8.55" shape="120.26,1100.99 120.28,1092.99"/>
    </edge>
    <edge id=":4337282454_3" function="internal">
        <lane id=":4337282454_3_0" index="0" speed="27.78" length="7.97" shape="126.74,1093.02 126.66,1100.99"/>
        <lane id=":4337282454_3_1" index="1" speed="27.78" length="7.97" shape="123.54,1093.01 123.46,1100.99"/>
    </edge>
    <edge id=":4806706809_0" function="internal">
        <lane id=":4806706809_0_0" index="0" speed="27.78" length="8.21" shape="283.25,1058.48 285.64,1058.75 287.24,1059.31 288.84,1059.88 291.24,1060.15"/>
        <lane id=":4806706809_0_1" index="1" speed="27.78" length="8.21" shape="283.22,1061.68 285.62,1061.45 287.23,1060.91 288.84,1060.38 291.24,1060.15"/>
        <lane id=":4806706809_0_2" index="2" speed="27.78" length="8.21" shape="283.19,1064.88 285.59,1064.65 287.20,1064.11 288.81,1063.58 291.20,1063.35"/>
    </edge>
    <edge id=":5896186164_0" function="internal">
        <lane id=":5896186164_0_0" index="0" speed="27.78" length="8.60" shape="675.59,1064.05 678.06,1063.57 679.61,1062.49 681.16,1061.41 683.63,1060.94"/>
        <lane id=":5896186164_0_1" index="1" speed="27.78" length="8.60" shape="675.55,1067.25 678.02,1066.77 679.57,1065.69 681.12,1064.61 683.59,1064.14"/>
        <lane id=":5896186164_0_2" index="2" speed="27.78" length="8.60" shape="675.55,1067.25 683.55,1067.34"/>
        <lane id=":5896186164_0_3" index="3" speed="27.78" length="8.60" shape="675.55,1067.25 678.01,1067.77 679.53,1068.89 681.05,1070.01 683.51,1070.54"/>
    </edge>
    <edge id=":5912731249_0" function="internal">
        <lane id=":5912731249_0_0" index="0" speed="27.78" length="0.30" shape="1160.76,1085.57 1160.47,1085.57"/>
        <lane id=":5912731249_0_1" index="1" speed="27.78" length="0.30" shape="1160.80,1082.37 1160.50,1082.37"/>
        <lane id=":5912731249_0_2" index="2" speed="27.78" length="0.30" shape="1160.84,1079.17 1160.53,1079.17"/>
    </edge>
    <edge id=":5913260154_0" function="internal">
        <lane id=":5913260154_0_0" index="0" speed="27.78" length="0.30" shape="894.76,1082.85 894.44,1082.85"/>
        <lane id=":5913260154_0_1" index="1" speed="27.78" length="0.30" shape="894.79,1079.65 894.49,1079.65"/>
        <lane id=":5913260154_0_2" index="2" speed="27.78" length="0.30" shape="894.81,1076.45 894.54,1076.45"/>
    </edge>
    <edge id=":5913486716_0" function="internal">
        <lane id=":5913486716_0_0" index="0" speed="27.78" length="8.18" shape="749.13,1082.37 746.73,1082.08 745.14,1081.50 743.54,1080.90 741.14,1080.56"/>
        <lane id=":5913486716_0_1" index="1" speed="27.78" length="8.18" shape="749.18,1079.17 746.80,1078.88 745.22,1078.30 743.64,1077.70 741.27,1077.36"/>
        <lane id=":5913486716_0_2" index="2" speed="27.78" length="8.18" shape="749.23,1075.97 746.85,1076.18 745.25,1076.70 743.64,1077.20 741.27,1077.36"/>
    </edge>
    <edge id=":5913511210_0" function="internal">
        <lane id=":5913511210_0_0" index="0" speed="27.78" length="8.21" shape="1286.19,1086.57 1283.80,1086.81 1282.19,1087.35 1280.59,1087.90 1278.20,1088.14"/>
        <lane id=":5913511210_0_1" index="1" speed="27.78" length="8.21" shape="1286.21,1083.37 1283.81,1083.61 1282.21,1084.15 1280.60,1084.70 1278.21,1084.94"/>
        <lane id=":5913511210_0_2" index="2" speed="27.78" length="8.21" shape="1286.21,1083.37 1283.81,1083.11 1282.21,1082.55 1280.61,1082.00 1278.21,1081.74"/>
        <lane id=":5913511210_0_3" index="3" speed="27.78" length="8.21" shape="1286.23,1080.17 1283.83,1079.91 1282.23,1079.35 1280.62,1078.80 1278.22,1078.54"/>
    </edge>
    <edge id=":5913716303_0" function="internal">
        <lane id=":5913716303_0_0" index="0" speed="6.52" length="9.05" shape="132.46,1077.43 130.00,1077.78 128.24,1078.84 127.19,1080.59 126.83,1083.03"/>
    </edge>
    <edge id=":5913716303_1" function="internal">
        <lane id=":5913716303_1_0" index="0" speed="27.78" length="24.19" shape="132.52,1074.23 108.35,1074.35"/>
        <lane id=":5913716303_1_1" index="1" speed="27.78" length="24.19" shape="132.57,1071.03 108.35,1071.15"/>
    </edge>
    <edge id=":5913716303_3" function="internal">
        <lane id=":5913716303_3_0" index="0" speed="9.82" length="9.95" shape="132.62,1067.83 127.29,1066.87 123.69,1064.12"/>
    </edge>
    <edge id=":5913716303_14" function="internal">
        <lane id=":5913716303_14_0" index="0" speed="9.82" length="12.32" shape="123.69,1064.12 123.52,1063.98 121.32,1059.16 120.68,1052.40"/>
    </edge>
    <edge id=":5913716303_4" function="internal">
        <lane id=":5913716303_4_0" index="0" speed="6.55" length="9.20" shape="127.08,1052.52 127.39,1054.98 128.45,1056.75 130.25,1057.83 132.78,1058.22"/>
    </edge>
    <edge id=":5913716303_5" function="internal">
        <lane id=":5913716303_5_0" index="0" speed="20.84" length="30.52" shape="127.08,1052.52 126.83,1083.03"/>
    </edge>
    <edge id=":5913716303_6" function="internal">
        <lane id=":5913716303_6_0" index="0" speed="11.04" length="10.62" shape="123.88,1052.46 122.77,1060.62 121.70,1062.75"/>
    </edge>
    <edge id=":5913716303_15" function="internal">
        <lane id=":5913716303_15_0" index="0" speed="11.04" length="16.88" shape="121.70,1062.75 119.82,1066.46 115.01,1069.97 108.35,1071.15"/>
    </edge>
    <edge id=":5913716303_7" function="internal">
        <lane id=":5913716303_7_0" index="0" speed="8.27" length="14.98" shape="108.31,1058.18 113.68,1057.81 117.53,1056.72 119.87,1054.92 120.68,1052.40"/>
    </edge>
    <edge id=":5913716303_8" function="internal">
        <lane id=":5913716303_8_0" index="0" speed="27.78" length="24.44" shape="108.31,1058.18 132.78,1058.22"/>
        <lane id=":5913716303_8_1" index="1" speed="27.78" length="24.44" shape="108.32,1061.38 132.73,1061.42"/>
    </edge>
    <edge id=":5913716303_10" function="internal">
        <lane id=":5913716303_10_0" index="0" speed="10.90" length="11.60" shape="108.33,1064.58 115.03,1065.72 118.92,1068.53"/>
    </edge>
    <edge id=":5913716303_16" function="internal">
        <lane id=":5913716303_16_0" index="0" speed="10.90" length="15.69" shape="118.92,1068.53 119.82,1069.17 122.68,1074.94 123.63,1083.03"/>
    </edge>
    <edge id=":5913716303_11" function="internal">
        <lane id=":5913716303_11_0" index="0" speed="7.27" length="11.61" shape="113.93,1083.02 113.59,1079.23 112.55,1076.51 110.81,1074.89 108.35,1074.35"/>
    </edge>
    <edge id=":5913716303_12" function="internal">
        <lane id=":5913716303_12_0" index="0" speed="20.84" length="30.87" shape="117.13,1083.03 117.70,1072.62 118.89,1063.96 120.09,1057.18 120.68,1052.40"/>
    </edge>
    <edge id=":5913716303_13" function="internal">
        <lane id=":5913716303_13_0" index="0" speed="10.42" length="15.45" shape="120.33,1083.03 121.13,1074.90 123.46,1069.12 124.24,1068.42"/>
    </edge>
    <edge id=":5913716303_17" function="internal">
        <lane id=":5913716303_17_0" index="0" speed="10.42" length="9.58" shape="124.24,1068.42 127.30,1065.69 132.68,1064.62"/>
    </edge>
    <edge id=":704695564_0" function="internal">
        <lane id=":704695564_0_0" index="0" speed="27.78" length="8.21" shape="894.21,1064.84 896.62,1064.60 898.23,1064.06 899.84,1063.53 902.24,1063.31"/>
        <lane id=":704695564_0_1" index="1" speed="27.78" length="8.21" shape="894.19,1068.04 896.59,1067.80 898.20,1067.26 899.81,1066.73 902.21,1066.51"/>
        <lane id=":704695564_0_2" index="2" speed="27.78" length="8.21" shape="894.17,1071.24 896.57,1071.00 898.17,1070.46 899.78,1069.93 902.17,1069.71"/>
        <lane id=":704695564_0_3" index="3" speed="27.78" length="8.21" shape="894.17,1071.24 896.56,1071.50 898.15,1072.06 899.75,1072.63 902.13,1072.90"/>
    </edge>
    <edge id=":704695657_0" function="internal">
        <lane id=":704695657_0_0" index="0" speed="27.78" length="8.21" shape="333.11,1074.82 330.71,1075.05 329.11,1075.59 327.50,1076.13 325.11,1076.37"/>
        <lane id=":704695657_0_1" index="1" speed="27.78" length="8.21" shape="333.13,1071.62 330.73,1071.85 329.13,1072.39 327.52,1072.93 325.12,1073.17"/>
        <lane id=":704695657_0_2" index="2" speed="27.78" length="8.21" shape="333.13,1071.62 330.73,1071.35 329.13,1070.79 327.53,1070.23 325.13,1069.97"/>
    </edge>
    <edge id=":J_Clark_0" function="internal">
        <lane id=":J_Clark_0_0" index="0" speed="6.87" length="10.24" shape="982.81,1084.79 979.70,1085.07 977.48,1086.07 976.12,1087.80 975.65,1090.24"/>
    </edge>
    <edge id=":J_Clark_1" function="internal">
        <lane id=":J_Clark_1_0" index="0" speed="27.78" length="23.56" shape="982.90,1081.59 959.44,1079.95"/>
        <lane id=":J_Clark_1_1" index="1" speed="27.78" length="23.56" shape="982.99,1078.39 959.45,1076.75"/>
    </edge>
    <edge id=":J_Clark_3" function="internal">
        <lane id=":J_Clark_3_0" index="0" speed="11.36" length="11.39" shape="983.08,1075.19 975.21,1073.90 972.30,1072.11"/>
    </edge>
    <edge id=":J_Clark_15" function="internal">
        <lane id=":J_Clark_15_0" index="0" speed="11.36" length="17.71" shape="972.30,1072.11 969.58,1070.43 966.19,1064.77 965.06,1056.94"/>
    </edge>
    <edge id=":J_Clark_4" function="internal">
        <lane id=":J_Clark_4_0" index="0" speed="6.44" length="8.97" shape="978.08,1056.93 978.31,1059.36 979.28,1061.13 980.99,1062.22 983.44,1062.63"/>
    </edge>
    <edge id=":J_Clark_5" function="internal">
        <lane id=":J_Clark_5_0" index="0" speed="22.22" length="33.32" shape="974.87,1056.93 975.65,1090.24"/>
    </edge>
    <edge id=":J_Clark_6" function="internal">
        <lane id=":J_Clark_6_0" index="0" speed="10.81" length="14.34" shape="971.67,1056.93 970.54,1065.61 968.52,1070.82"/>
    </edge>
    <edge id=":J_Clark_16" function="internal">
        <lane id=":J_Clark_16_0" index="0" speed="10.81" length="11.43" shape="968.52,1070.82 968.13,1071.80 964.43,1075.52 959.45,1076.75"/>
    </edge>
    <edge id=":J_Clark_7" function="internal">
        <lane id=":J_Clark_7_0" index="0" speed="6.84" length="10.04" shape="959.46,1063.78 961.91,1063.33 963.66,1062.04 964.71,1059.91 965.06,1056.94"/>
    </edge>
    <edge id=":J_Clark_8" function="internal">
        <lane id=":J_Clark_8_0" index="0" speed="27.78" length="23.92" shape="959.46,1063.78 983.44,1062.63"/>
        <lane id=":J_Clark_8_1" index="1" speed="27.78" length="23.92" shape="959.46,1066.98 983.35,1065.83"/>
        <lane id=":J_Clark_8_2" index="2" speed="27.78" length="23.92" shape="959.45,1070.18 983.26,1069.03"/>
    </edge>
    <edge id=":J_Clark_11" function="internal">
        <lane id=":J_Clark_11_0" index="0" speed="10.72" length="7.88" shape="959.45,1073.38 966.63,1074.38 967.16,1074.71"/>
    </edge>
    <edge id=":J_Clark_17" function="internal">
        <lane id=":J_Clark_17_0" index="0" speed="10.72" length="18.92" shape="967.16,1074.71 971.72,1077.52 974.72,1082.81 975.65,1090.24"/>
    </edge>
    <edge id=":J_Clark_12" function="internal">
        <lane id=":J_Clark_12_0" index="0" speed="7.38" length="12.01" shape="967.32,1090.13 966.86,1087.08 965.39,1084.90 962.92,1083.59 959.44,1083.15"/>
    </edge>
    <edge id=":J_Clark_13" function="internal">
        <lane id=":J_Clark_13_0" index="0" speed="22.22" length="33.26" shape="967.32,1090.13 965.06,1056.94"/>
    </edge>
    <edge id=":J_Clark_14" function="internal">
        <lane id=":J_Clark_14_0" index="0" speed="10.92" length="13.50" shape="970.52,1090.17 971.42,1080.79 972.82,1076.96"/>
    </edge>
    <edge id=":J_Clark_18" function="internal">
        <lane id=":J_Clark_18_0" index="0" speed="10.92" length="14.16" shape="972.82,1076.96 973.84,1074.14 977.79,1070.22 983.26,1069.03"/>
    </edge>
    <edge id=":TL_Delano_0" function="internal">
        <lane id=":TL_Delano_0_0" index="0" speed="6.21" length="9.44" shape="794.38,1088.57 794.51,1086.17 793.62,1084.44 791.73,1083.38 788.84,1082.99"/>
    </edge>
    <edge id=":TL_Delano_1" function="internal">
        <lane id=":TL_Delano_1_0" index="0" speed="11.69" length="27.02" shape="797.65,1088.52 800.05,1079.31 803.17,1072.74 807.01,1068.81 811.56,1067.52"/>
        <lane id=":TL_Delano_1_1" index="1" speed="10.59" length="22.01" shape="800.92,1088.48 802.88,1080.69 805.31,1075.14 808.19,1071.82 811.54,1070.72"/>
    </edge>
    <edge id=":TL_Delano_3" function="internal">
        <lane id=":TL_Delano_3_0" index="0" speed="6.75" length="10.08" shape="811.48,1081.53 809.02,1081.92 807.28,1083.20 806.27,1085.36 805.99,1088.40"/>
    </edge>
    <edge id=":TL_Delano_4" function="internal">
        <lane id=":TL_Delano_4_0" index="0" speed="27.78" length="22.64" shape="811.50,1078.33 788.89,1079.79"/>
        <lane id=":TL_Delano_4_1" index="1" speed="27.78" length="22.64" shape="811.52,1075.13 788.93,1076.59"/>
    </edge>
    <edge id=":TL_Delano_6" function="internal">
        <lane id=":TL_Delano_6_0" index="0" speed="27.78" length="22.54" shape="789.16,1062.33 811.58,1064.32"/>
        <lane id=":TL_Delano_6_1" index="1" speed="27.78" length="22.54" shape="789.11,1065.53 811.56,1067.52"/>
        <lane id=":TL_Delano_6_2" index="2" speed="27.78" length="22.54" shape="789.06,1068.73 811.54,1070.72"/>
    </edge>
    <edge id=":TL_Delano_9" function="internal">
        <lane id=":TL_Delano_9_0" index="0" speed="10.45" length="6.96" shape="789.01,1071.93 794.90,1073.03 795.68,1073.59"/>
    </edge>
    <edge id=":TL_Delano_10" function="internal">
        <lane id=":TL_Delano_10_0" index="0" speed="10.45" length="17.32" shape="795.68,1073.59 799.16,1076.14 801.79,1081.29 802.79,1088.45"/>
    </edge>
    <edge id=":TL_Michigan_0" function="internal">
        <lane id=":TL_Michigan_0_0" index="0" speed="6.55" length="9.02" shape="1515.07,1089.49 1512.62,1089.84 1510.86,1090.88 1509.79,1092.62 1509.39,1095.05"/>
    </edge>
    <edge id=":TL_Michigan_1" function="internal">
        <lane id=":TL_Michigan_1_0" index="0" speed="27.78" length="31.60" shape="1515.09,1086.29 1483.48,1086.05"/>
        <lane id=":TL_Michigan_1_1" index="1" speed="27.78" length="31.60" shape="1515.11,1083.09 1483.52,1082.85"/>
    </edge>
    <edge id=":TL_Michigan_3" function="internal">
        <lane id=":TL_Michigan_3_0" index="0" speed="11.36" length="12.00" shape="1515.12,1079.89 1506.69,1078.79 1503.62,1077.11"/>
    </edge>
    <edge id=":TL_Michigan_16" function="internal">