<?xml version="1.0" ?>
<routes xmlns:xsi="http://www.w3.org/2001/XMLSchema-instance" xsi:noNamespaceSchemaLocation="http://sumo.dlr.de/xsd/routes_file.xsd">
    
    
    <vType id="hdv" length="4.3" carFollowModel="IDM" emergencyDecel="4.0" laneChangeModel="SL2015" latAlignment="arbitrary" lcKeepRight="0.0" lcOvertakeRight="0.0" maxSpeed="20.55" minGap="2.5" accel="1.0" decel="2" tau="1.4" lcSublane="1.0" maxSpeedLat="5" lcAccelLat="0.7" minGapLat="0.4" lcStrategic="10" lcCooperative="1.0" lcPushy="0.4" lcImpatience="0." lcSpeedGain="1.5"/>
    <vType id="cav" length="4.3" carFollowModel="IDM" emergencyDecel="4.0" laneChangeModel="SL2015" latAlignment="arbitrary" lcKeepRight="0.0" lcOvertakeRight="0.0" maxSpeed="20.55" minGap="2.5" accel="1.0" decel="2" tau="1.4" lcSublane="1.0" maxSpeedLat="5" lcAccelLat="1.2" minGapLat="0.4" lcStrategic="50" lcCooperative="1.0" lcPushy="0.4" lcImpatience="0.9" lcSpeedGain="1.5"/>
    <route id="0" edges="435542913#0 421101869#1" color="0,84,198"/>
    
    
    <route id="1" edges="435381830#0 163148288#1" color="87,105,129"/>
    
    
    <route id="2" edges="435561332#0 314011259#1" color="61,143,193"/>
    
    
    <route id="3" edges="435542926#0 626352352#1" color="32,146,84"/>
    
    
    <route id="4" edges="435561321#0 314011263#2" color="99,227,83"/>
    
    
    <route id="5" edges="-163148288#1 1000784669#1" color="65,132,252"/>
    
    
    <route id="6" edges="95357377#0 904944345#1" color="200,81,146"/>
    
    
    <route id="7" edges="435381830#0 -435834768#0 -435381809#0" color="248,232,137"/>
    
    
    <route id="8" edges="435542910#0 294592601#1 294592601#2" color="231,189,119"/>
    
    
    <route id="9" edges="435561332#0 56150137#1 -625621676#0" color="249,240,162"/>
    
    
    <route id="10" edges="435381803#0 435381806#1 435834767" color="24,198,87"/>
    
    
    <route id="11" edges="435381809#0 435834768#0 1000784669#1" color="68,151,163"/>
    
    
    <route id="12" edges="435381809#0 435834768#0 163148288#1" color="62,150,136"/>
    
    
    <route id="13" edges="-435834767 -435381806#1 -435381803#0" color="119,172,50"/>
    
    
    <route id="14" edges="435561321#0 56150137#1 -625621676#0" color="19,77,148"/>
    
    
    <route id="15" edges="-163148288#1 -435834768#0 -435381809#0" color="178,41,166"/>
    
    
    <route id="16" edges="-185528581#1 990453574#1 314011259#1" color="184,92,98"/>
    
    
    <route id="17" edges="-185528581#1 990453574#1 314011263#2" color="253,26,107"/>
    
    
    <route id="18" edges="E0 -740147205#1 -740147205#0" color="84,162,154"/>
    
    
    <route id="19" edges="E0 143926851#1 185528581#1" color="249,26,86"/>
    
    
    <route id="20" edges="740147205#0 740147205#1 E1" color="75,141,176"/>
    
    
    <route id="21" edges="435542913#0 435542901#1 435542903#0 E1" color="75,186,245"/>
    
    
    <route id="22" edges="435381830#0 377897003#1 435381826#0 -435381803#0" color="8,90,147"/>
    
    
    <route id="23" edges="435542910#0 435542901#1 435542903#0 E1" color="9,63,147"/>
    
    
    <route id="24" edges="435381803#0 377897004#1 435381825#0 1000784669#1" color="152,101,144"/>
    
    
    <route id="25" edges="435381803#0 377897004#1 435381825#0 163148288#1" color="27,94,217"/>
    
    
    <route id="26" edges="625621676#0 56150137#2 435561310#0 E1" color="107,99,242"/>
    
    
    <route id="27" edges="435542926#0 435542924#1 435542920 421101869#1" color="224,56,77"/>
    
    
    <route id="28" edges="435542926#0 904944343#1 435542922#0 1029341655#1" color="249,244,41"/>
    
    
    <route id="29" edges="-163148288#1 377897003#1 435381826#0 -435381803#0" color="27,51,20"/>
    
    
    <route id="30" edges="445359457#0 980841225#1 435542921#0 626352352#1" color="166,182,253"/>
    
    
    <route id="31" edges="445359457#0 980841225#1 435542921#0 904944345#1" color="176,226,146"/>
    
    
    <route id="32" edges="95357377#0 435542924#1 435542920 421101869#1" color="40,181,253"/>
    
    
    <route id="33" edges="E0 143926851#1 990453574#1 314011259#1" color="112,237,109"/>
    
    
    <route id="34" edges="E0 143926851#1 990453574#1 314011263#2" color="171,113,97"/>
    
    
    <route id="35" edges="E0 488357314#1 435542902#0 421101869#1" color="15,88,23"/>
    
    
    <route id="36" edges="740147205#0 740147205#1 143926851#1 185528581#1" color="70,43,115"/>
    
    
    <route id="37" edges="435542913#0 435542901#1 435542903#0 -740147205#1 -740147205#0" color="227,37,20"/>
    
    
    <route id="38" edges="435542913#0 435542901#1 435542903#0 143926851#1 185528581#1" color="168,224,113"/>
    
    
    <route id="39" edges="435542913#0 435542919 626290592 277219207#0 626352352#1" color="162,52,114"/>
    
    
    <route id="40" edges="435542913#0 435542919 626290592 277219207#0 904944345#1" color="178,252,67"/>
    
    
    <route id="41" edges="435381830#0 377897003#1 435381826#0 435381806#1 435834767" color="218,36,87"/>
    
    
    <route id="42" edges="435542910#0 435542901#1 435542903#0 -740147205#1 -740147205#0" color="188,51,181"/>
    
    
    <route id="43" edges="435542910#0 435542901#1 435542903#0 143926851#1 185528581#1" color="5,35,206"/>
    
    
    <route id="44" edges="435542910#0 435542919 626290592 277219207#0 626352352#1" color="168,24,192"/>
    
    
    <route id="45" edges="435542910#0 435542919 626290592 277219207#0 904944345#1" color="254,38,73"/>
    
    
    <route id="46" edges="435561332#0 56150137#1 56150137#2 435561310#0 E1" color="92,140,112"/>
    
    
    <route id="47" edges="435381803#0 163148368#1 56150140 435542925#0 1029341655#1" color="222,167,98"/>
    
    
    <route id="48" edges="435381803#0 377897004#1 435381825#0 -435834768#0 -435381809#0" color="23,36,240"/>
    
    
    <route id="49" edges="435381809#0 435834768#0 377897003#1 435381826#0 -435381803#0" color="27,35,115"/>
    
    
    <route id="50" edges="625621676#0 56150137#2 435561310#0 -740147205#1 -740147205#0" color="200,201,56"/>
    
    
    <route id="51" edges="-435834767 -435381806#1 377897004#1 435381825#0 1000784669#1" color="28,103,24"/>
    
    
    <route id="52" edges="-435834767 -435381806#1 377897004#1 435381825#0 163148288#1" color="132,150,178"/>
    
    
    <route id="53" edges="435542926#0 435542924#1 435542920 294592601#1 294592601#2" color="13,62,23"/>
    
    
    <route id="54" edges="435561321#0 56150137#1 56150137#2 435561310#0 E1" color="96,59,58"/>
    
    
    <route id="55" edges="-163148288#1 377897003#1 435381826#0 435381806#1 435834767" color="207,66,172"/>
    
    
    <route id="56" edges="95357377#0 435542924#1 435542920 294592601#1 294592601#2" color="17,235,202"/>
    
    
    <route id="57" edges="E0 488357314#1 435542902#0 294592601#1 294592601#2" color="5,173,188"/>
    
    
    <route id="58" edges="740147205#0 740147205#1 143926851#1 990453574#1 314011259#1" color="121,126,87"/>
    
    
    <route id="59" edges="740147205#0 740147205#1 143926851#1 990453574#1 314011263#2" color="124,47,156"/>
    
    
    <route id="60" edges="740147205#0 740147205#1 488357314#1 435542902#0 421101869#1" color="123,25,98"/>
    
    
    <route id="61" edges="435542913#0 435542901#1 435542903#0 143926851#1 990453574#1 314011259#1" color="63,25,72"/>
    
    
    <route id="62" edges="435542913#0 435542901#1 435542903#0 143926851#1 990453574#1 314011263#2" color="140,214,74"/>
    
    
    <route id="63" edges="435542910#0 435542901#1 435542903#0 143926851#1 990453574#1 314011259#1" color="159,49,239"/>
    
    
    <route id="64" edges="435542910#0 435542901#1 435542903#0 143926851#1 990453574#1 314011263#2" color="58,140,244"/>
    
    
    <route id="65" edges="435561332#0 -435561326#0 -435561323 435561323 435561326#0 314011259#1" color="31,40,177"/>
    
    
    <route id="66" edges="435561332#0 -435561326#0 -435561323 435561323 435561326#0 314011263#2" color="54,108,132"/>
    
    
    <route id="67" edges="435561332#0 56150137#1 56150137#2 435561310#0 -740147205#1 -740147205#0" color="239,124,65"/>
    
    
    <route id="68" edges="435381809#0 435834768#0 377897003#1 435381826#0 435381806#1 435834767" color="181,14,238"/>
    
    
    <route id="69" edges="625621676#0 56150137#2 435561310#0 488357314#1 435542902#0 421101869#1" color="96,190,212"/>
    
    
    <route id="70" edges="-435834767 -435381806#1 163148368#1 56150140 435542925#0 1029341655#1" color="159,59,7"/>
    
    
    <route id="71" edges="-435834767 -435381806#1 377897004#1 435381825#0 -435834768#0 -435381809#0" color="3,18,199"/>
    
    
    <route id="72" edges="435542926#0 435542924#1 435542920 435542901#1 435542903#0 E1" color="83,56,241"/>
    
    
    <route id="73" edges="435561321#0 -435561326#0 -435561323 435561323 435561326#0 314011259#1" color="139,163,163"/>
    
    
    <route id="74" edges="435561321#0 -435561326#0 -435561323 435561323 435561326#0 314011263#2" color="76,230,85"/>
    
    
    <route id="75" edges="435561321#0 56150137#1 56150137#2 435561310#0 -740147205#1 -740147205#0" color="241,53,162"/>
    
    
    <route id="76" edges="445359457#0 435542918#1 1243008255 23887479 435381827#0 -435381803#0" color="12,149,14"/>
    
    
    <route id="77" edges="445359457#0 980841225#1 435542921#0 435542924#1 435542920 421101869#1" color="71,117,81"/>
    
    
    <route id="78" edges="95357377#0 435542924#1 435542920 435542901#1 435542903#0 E1" color="180,28,231"/>
    
    
    <route id="79" edges="740147205#0 740147205#1 488357314#1 435542902#0 294592601#1 294592601#2" color="92,131,52"/>
    
    
    <route id="80" edges="435542913#0 435542919 626290592 277219207#0 904944343#1 435542922#0 1029341655#1" color="2,230,1"/>
    
    
    <route id="81" edges="435381830#0 377897003#1 435381826#0 163148368#1 56150140 435542925#0 1029341655#1" color="222,214,203"/>
    
    
    <route id="82" edges="435542910#0 435542919 626290592 277219207#0 904944343#1 435542922#0 1029341655#1" color="194,31,150"/>
    
    
    <route id="83" edges="435561332#0 -435561326#0 -435561323 435561323 435561326#0 56150137#1 -625621676#0" color="225,49,180"/>
    
    
    <route id="84" edges="435561332#0 56150137#1 56150137#2 435561310#0 488357314#1 435542902#0 421101869#1" color="202,160,151"/>
    
    
    <route id="85" edges="435381803#0 163148368#1 56150140 435542925#0 980841225#1 435542921#0 626352352#1" color="175,88,242"/>
    
    
    <route id="86" edges="435381803#0 163148368#1 56150140 435542925#0 980841225#1 435542921#0 904944345#1" color="177,86,147"/>
    
    
    <route id="87" edges="625621676#0 56150137#2 435561310#0 488357314#1 435542902#0 294592601#1 294592601#2" color="50,53,245"/>
    
    
    <route id="88" edges="435542926#0 435542924#1 435542920 435542901#1 435542903#0 -740147205#1 -740147205#0" color="153,70,188"/>
    
    
    <route id="89" edges="435542926#0 435542924#1 435542920 435542901#1 435542903#0 143926851#1 185528581#1" color="242,29,11"/>
    
    
    <route id="90" edges="435561321#0 -435561326#0 -435561323 435561323 435561326#0 56150137#1 -625621676#0" color="185,138,22"/>
    
    
    <route id="91" edges="435561321#0 56150137#1 56150137#2 435561310#0 488357314#1 435542902#0 421101869#1" color="211,100,40"/>
    
    
    <route id="92" edges="-163148288#1 377897003#1 435381826#0 163148368#1 56150140 435542925#0 1029341655#1" color="135,158,108"/>
    
    
    <route id="93" edges="445359457#0 435542918#1 1243008255 23887479 435381827#0 435381806#1 435834767" color="182,77,237"/>
    
    
    <route id="94" edges="445359457#0 980841225#1 435542921#0 435542924#1 435542920 294592601#1 294592601#2" color="222,212,170"/>
    
    
    <route id="95" edges="-185528581#1 990453574#1 -435561326#0 -435561323 435561323 435561326#0 314011259#1" color="0,237,220"/>
    
    
    <route id="96" edges="-185528581#1 990453574#1 -435561326#0 -435561323 435561323 435561326#0 314011263#2" color="148,228,18"/>
    
    
    <route id="97" edges="95357377#0 435542924#1 435542920 435542901#1 435542903#0 -740147205#1 -740147205#0" color="203,143,231"/>
    
    
    <route id="98" edges="95357377#0 435542924#1 435542920 435542901#1 435542903#0 143926851#1 185528581#1" color="143,221,58"/>
    
    
    <route id="99" edges="E0 488357314#1 435542902#0 435542919 626290592 277219207#0 626352352#1" color="71,26,122"/>
    
    
    <route id="100" edges="E0 488357314#1 435542902#0 435542919 626290592 277219207#0 904944345#1" color="241,176,44"/>
    
    
    <route id="101" edges="435561332#0 56150137#1 56150137#2 435561310#0 488357314#1 435542902#0 294592601#1 294592601#2" color="51,57,126"/>
    
    
    <route id="102" edges="435381809#0 435834768#0 377897003#1 435381826#0 163148368#1 56150140 435542925#0 1029341655#1" color="19,175,226"/>
    
    
    <route id="103" edges="-435834767 -435381806#1 163148368#1 56150140 435542925#0 980841225#1 435542921#0 626352352#1" color="34,255,230"/>
    
    
    <route id="104" edges="-435834767 -435381806#1 163148368#1 56150140 435542925#0 980841225#1 435542921#0 904944345#1" color="115,15,90"/>
    
    
    <route id="105" edges="435542926#0 435542924#1 435542920 435542901#1 435542903#0 143926851#1 990453574#1 314011259#1" color="230,68,219"/>
    
    
    <route id="106" edges="435542926#0 435542924#1 435542920 435542901#1 435542903#0 143926851#1 990453574#1 314011263#2" color="206,60,238"/>
    
    
    <route id="107" edges="435542926#0 904944343#1 435542922#0 435542918#1 1243008255 23887479 435381827#0 -435381803#0" color="234,122,50"/>
    
    
    <route id="108" edges="435561321#0 56150137#1 56150137#2 435561310#0 488357314#1 435542902#0 294592601#1 294592601#2" color="8,174,177"/>
    
    
    <route id="109" edges="445359457#0 435542918#1 1243008255 23887479 435381827#0 377897004#1 435381825#0 1000784669#1" color="25,2,36"/>
    
    
    <route id="110" edges="445359457#0 435542918#1 1243008255 23887479 435381827#0 377897004#1 435381825#0 163148288#1" color="185,66,228"/>
    
    
    <route id="111" edges="445359457#0 980841225#1 435542921#0 435542924#1 435542920 435542901#1 435542903#0 E1" color="179,5,192"/>
    
    
    <route id="112" edges="-185528581#1 990453574#1 -435561326#0 -435561323 435561323 435561326#0 56150137#1 -625621676#0" color="198,179,185"/>
    
    
    <route id="113" edges="95357377#0 435542924#1 435542920 435542901#1 435542903#0 143926851#1 990453574#1 314011259#1" color="253,78,228"/>
    
    
    <route id="114" edges="95357377#0 435542924#1 435542920 435542901#1 435542903#0 143926851#1 990453574#1 314011263#2" color="62,22,138"/>
    
    
    <route id="115" edges="E0 143926851#1 990453574#1 -435561326#0 -435561323 435561323 435561326#0 314011259#1" color="196,6,161"/>
    
    
    <route id="116" edges="E0 143926851#1 990453574#1 -435561326#0 -435561323 435561323 435561326#0 314011263#2" color="61,254,149"/>
    
    
    <route id="117" edges="740147205#0 740147205#1 488357314#1 435542902#0 435542919 626290592 277219207#0 626352352#1" color="167,179,108"/>
    
    
    <route id="118" edges="740147205#0 740147205#1 488357314#1 435542902#0 435542919 626290592 277219207#0 904944345#1" color="100,10,115"/>
    
    
    <route id="119" edges="435381830#0 377897003#1 435381826#0 163148368#1 56150140 435542925#0 980841225#1 435542921#0 626352352#1" color="22,91,84"/>
    
    
    <route id="120" edges="435381830#0 377897003#1 435381826#0 163148368#1 56150140 435542925#0 980841225#1 435542921#0 904944345#1" color="215,53,65"/>
    
    
    <route id="121" edges="435561332#0 -435561326#0 -435561323 435561323 435561326#0 56150137#1 56150137#2 435561310#0 E1" color="46,214,94"/>
    
    
    <route id="122" edges="435381803#0 163148368#1 56150140 435542925#0 980841225#1 435542921#0 435542924#1 435542920 421101869#1" color="104,47,177"/>
    
    
    <route id="123" edges="625621676#0 56150137#2 435561310#0 488357314#1 435542902#0 435542919 626290592 277219207#0 626352352#1" color="165,101,112"/>
    
    
    <route id="124" edges="625621676#0 56150137#2 435561310#0 488357314#1 435542902#0 435542919 626290592 277219207#0 904944345#1" color="105,74,150"/>
    
    
    <route id="125" edges="435542926#0 904944343#1 435542922#0 435542918#1 1243008255 23887479 435381827#0 435381806#1 435834767" color="25,4,80"/>
    
    
    <route id="126" edges="435561321#0 -435561326#0 -435561323 435561323 435561326#0 56150137#1 56150137#2 435561310#0 E1" color="32,197,208"/>
    
    
    <route id="127" edges="-163148288#1 377897003#1 435381826#0 163148368#1 56150140 435542925#0 980841225#1 435542921#0 626352352#1" color="181,5,137"/>
    
    
    <route id="128" edges="-163148288#1 377897003#1 435381826#0 163148368#1 56150140 435542925#0 980841225#1 435542921#0 904944345#1" color="34,37,122"/>
    
    
    <route id="129" edges="445359457#0 435542918#1 1243008255 23887479 435381827#0 377897004#1 435381825#0 -435834768#0 -435381809#0" color="122,70,84"/>
    
    
    <route id="130" edges="445359457#0 980841225#1 435542921#0 435542924#1 435542920 435542901#1 435542903#0 -740147205#1 -740147205#0" color="127,213,110"/>
    
    
    <route id="131" edges="445359457#0 980841225#1 435542921#0 435542924#1 435542920 435542901#1 435542903#0 143926851#1 185528581#1" color="147,249,128"/>
    
    
    <route id="132" edges="E0 143926851#1 990453574#1 -435561326#0 -435561323 435561323 435561326#0 56150137#1 -625621676#0" color="150,143,24"/>
    
    
    <route id="133" edges="E0 488357314#1 435542902#0 435542919 626290592 277219207#0 904944343#1 435542922#0 1029341655#1" color="133,146,52"/>
    
    
    <route id="134" edges="740147205#0 740147205#1 143926851#1 990453574#1 -435561326#0 -435561323 435561323 435561326#0 314011259#1" color="196,55,33"/>
    
    
    <route id="135" edges="740147205#0 740147205#1 143926851#1 990453574#1 -435561326#0 -435561323 435561323 435561326#0 314011263#2" color="14,184,73"/>
    
    
    <route id="136" edges="435542913#0 435542901#1 435542903#0 143926851#1 990453574#1 -435561326#0 -435561323 435561323 435561326#0 314011259#1" color="182,121,243"/>
    
    
    <route id="137" edges="435542913#0 435542901#1 435542903#0 143926851#1 990453574#1 -435561326#0 -435561323 435561323 435561326#0 314011263#2" color="152,31,244"/>
    
    
    <route id="138" edges="435542910#0 435542901#1 435542903#0 143926851#1 990453574#1 -435561326#0 -435561323 435561323 435561326#0 314011259#1" color="109,94,117"/>
    
    
    <route id="139" edges="435542910#0 435542901#1 435542903#0 143926851#1 990453574#1 -435561326#0 -435561323 435561323 435561326#0 314011263#2" color="202,106,42"/>
    
    
    <route id="140" edges="435561332#0 -435561326#0 -435561323 435561323 435561326#0 56150137#1 56150137#2 435561310#0 -740147205#1 -740147205#0" color="39,233,109"/>
    
    
    <route id="141" edges="435561332#0 56150137#1 56150137#2 435561310#0 488357314#1 435542902#0 435542919 626290592 277219207#0 626352352#1" color="44,167,170"/>
    
    
    <route id="142" edges="435561332#0 56150137#1 56150137#2 435561310#0 488357314#1 435542902#0 435542919 626290592 277219207#0 904944345#1" color="252,41,163"/>
    
    
    <route id="143" edges="435381803#0 163148368#1 56150140 435542925#0 980841225#1 435542921#0 435542924#1 435542920 294592601#1 294592601#2" color="239,196,194"/>
    
    
    <route id="144" edges="435381809#0 435834768#0 377897003#1 435381826#0 163148368#1 56150140 435542925#0 980841225#1 435542921#0 626352352#1" color="67,0,44"/>
    
    
    <route id="145" edges="435381809#0 435834768#0 377897003#1 435381826#0 163148368#1 56150140 435542925#0 980841225#1 435542921#0 904944345#1" color="88,8,32"/>
    
    
    <route id="146" edges="-435834767 -435381806#1 163148368#1 56150140 435542925#0 980841225#1 435542921#0 435542924#1 435542920 421101869#1" color="225,227,219"/>
    
    
    <route id="147" edges="435542926#0 904944343#1 435542922#0 435542918#1 1243008255 23887479 435381827#0 377897004#1 435381825#0 1000784669#1" color="57,73,9"/>
    
    
    <route id="148" edges="435542926#0 904944343#1 435542922#0 435542918#1 1243008255 23887479 435381827#0 377897004#1 435381825#0 163148288#1" color="249,118,74"/>
    
    
    <route id="149" edges="435561321#0 -435561326#0 -435561323 435561323 435561326#0 56150137#1 56150137#2 435561310#0 -740147205#1 -740147205#0" color="27,48,15"/>
    
    
    <route id="150" edges="435561321#0 56150137#1 56150137#2 435561310#0 488357314#1 435542902#0 435542919 626290592 277219207#0 626352352#1" color="156,2,29"/>
    
    
    <route id="151" edges="435561321#0 56150137#1 56150137#2 435561310#0 488357314#1 435542902#0 435542919 626290592 277219207#0 904944345#1" color="214,125,53"/>
    
    
    <route id="152" edges="445359457#0 980841225#1 435542921#0 435542924#1 435542920 435542901#1 435542903#0 143926851#1 990453574#1 314011259#1" color="4,79,200"/>
    
    
    <route id="153" edges="445359457#0 980841225#1 435542921#0 435542924#1 435542920 435542901#1 435542903#0 143926851#1 990453574#1 314011263#2" color="6,197,205"/>
    
    
    <route id="154" edges="-185528581#1 990453574#1 -435561326#0 -435561323 435561323 435561326#0 56150137#1 56150137#2 435561310#0 E1" color="238,191,251"/>
    
    
    <route id="155" edges="740147205#0 740147205#1 143926851#1 990453574#1 -435561326#0 -435561323 435561323 435561326#0 56150137#1 -625621676#0" color="69,15,199"/>
    
    
    <route id="156" edges="740147205#0 740147205#1 488357314#1 435542902#0 435542919 626290592 277219207#0 904944343#1 435542922#0 1029341655#1" color="136,19,12"/>
    
    
    <route id="157" edges="435542913#0 435542901#1 435542903#0 143926851#1 990453574#1 -435561326#0 -435561323 435561323 435561326#0 56150137#1 -625621676#0" color="44,195,92"/>
    
    
    <route id="158" edges="435542913#0 435542919 626290592 277219207#0 904944343#1 435542922#0 435542918#1 1243008255 23887479 435381827#0 -435381803#0" color="50,162,145"/>
    
    
    <route id="159" edges="435381830#0 377897003#1 435381826#0 163148368#1 56150140 435542925#0 980841225#1 435542921#0 435542924#1 435542920 421101869#1" color="127,5,235"/>
    
    
    <route id="160" edges="435542910#0 435542901#1 435542903#0 143926851#1 990453574#1 -435561326#0 -435561323 435561323 435561326#0 56150137#1 -625621676#0" color="243,218,189"/>
    
    
    <route id="161" edges="435542910#0 435542919 626290592 277219207#0 904944343#1 435542922#0 435542918#1 1243008255 23887479 435381827#0 -435381803#0" color="68,208,48"/>
    
    
    <route id="162" edges="435561332#0 -435561326#0 -435561323 435561323 435561326#0 56150137#1 56150137#2 435561310#0 488357314#1 435542902#0 421101869#1" color="81,22,3"/>
    
    
    <route id="163" edges="435381803#0 163148368#1 56150140 435542925#0 980841225#1 435542921#0 435542924#1 435542920 435542901#1 435542903#0 E1" color="250,241,102"/>
    
    
    <route id="164" edges="625621676#0 56150137#2 435561310#0 488357314#1 435542902#0 435542919 626290592 277219207#0 904944343#1 435542922#0 1029341655#1" color="203,209,47"/>
    
    
    <route id="165" edges="-435834767 -435381806#1 163148368#1 56150140 435542925#0 980841225#1 435542921#0 435542924#1 435542920 294592601#1 294592601#2" color="90,57,202"/>
    
    
    <route id="166" edges="435542926#0 904944343#1 435542922#0 435542918#1 1243008255 23887479 435381827#0 377897004#1 435381825#0 -435834768#0 -435381809#0" color="202,249,77"/>
    
    
    <route id="167" edges="435561321#0 -435561326#0 -435561323 435561323 435561326#0 56150137#1 56150137#2 435561310#0 488357314#1 435542902#0 421101869#1" color="218,181,124"/>
    
    
    <route id="168" edges="-163148288#1 377897003#1 435381826#0 163148368#1 56150140 435542925#0 980841225#1 435542921#0 435542924#1 435542920 421101869#1" color="102,231,33"/>
    
    
    <route id="169" edges="-185528581#1 990453574#1 -435561326#0 -435561323 435561323 435561326#0 56150137#1 56150137#2 435561310#0 -740147205#1 -740147205#0" color="12,53,254"/>
    
    
    <route id="170" edges="E0 143926851#1 990453574#1 -435561326#0 -435561323 435561323 435561326#0 56150137#1 56150137#2 435561310#0 E1" color="139,112,156"/>
    
    
    <route id="171" edges="435542913#0 435542919 626290592 277219207#0 904944343#1 435542922#0 435542918#1 1243008255 23887479 435381827#0 435381806#1 435834767" color="118,85,149"/>
    
    
    <route id="172" edges="435381830#0 377897003#1 435381826#0 163148368#1 56150140 435542925#0 980841225#1 435542921#0 435542924#1 435542920 294592601#1 294592601#2" color="12,151,218"/>
    
    
    <route id="173" edges="435542910#0 435542919 626290592 277219207#0 904944343#1 435542922#0 435542918#1 1243008255 23887479 435381827#0 435381806#1 435834767" color="182,71,237"/>
    
    
    <route id="174" edges="435561332#0 -435561326#0 -435561323 435561323 435561326#0 56150137#1 56150137#2 435561310#0 488357314#1 435542902#0 294592601#1 294592601#2" color="28,69,73"/>
    
    
    <route id="175" edges="435561332#0 56150137#1 56150137#2 435561310#0 488357314#1 435542902#0 435542919 626290592 277219207#0 904944343#1 435542922#0 1029341655#1" color="226,99,81"/>
    
    
    <route id="176" edges="435381803#0 163148368#1 56150140 435542925#0 980841225#1 435542921#0 435542924#1 435542920 435542901#1 435542903#0 -740147205#1 -740147205#0" color="83,57,187"/>
    
    
    <route id="177" edges="435381803#0 163148368#1 56150140 435542925#0 980841225#1 435542921#0 435542924#1 435542920 435542901#1 435542903#0 143926851#1 185528581#1" color="170,91,225"/>
    
    
    <route id="178" edges="435381809#0 435834768#0 377897003#1 435381826#0 163148368#1 56150140 435542925#0 980841225#1 435542921#0 435542924#1 435542920 421101869#1" color="164,80,152"/>
    
    
    <route id="179" edges="-435834767 -435381806#1 163148368#1 56150140 435542925#0 980841225#1 435542921#0 435542924#1 435542920 435542901#1 435542903#0 E1" color="226,37,94"/>
    
    
    <route id="180" edges="435542926#0 435542924#1 435542920 435542901#1 435542903#0 143926851#1 990453574#1 -435561326#0 -435561323 435561323 435561326#0 314011259#1" color="135,104,85"/>
    
    
    <route id="181" edges="435542926#0 435542924#1 435542920 435542901#1 435542903#0 143926851#1 990453574#1 -435561326#0 -435561323 435561323 435561326#0 314011263#2" color="169,173,231"/>
    
    
    <route id="182" edges="435561321#0 -435561326#0 -435561323 435561323 435561326#0 56150137#1 56150137#2 435561310#0 488357314#1 435542902#0 294592601#1 294592601#2" color="92,123,53"/>
    
    
    <route id="183" edges="435561321#0 56150137#1 56150137#2 435561310#0 488357314#1 435542902#0 435542919 626290592 277219207#0 904944343#1 435542922#0 1029341655#1" color="102,187,251"/>
    
    
    <route id="184" edges="-163148288#1 377897003#1 435381826#0 163148368#1 56150140 435542925#0 980841225#1 435542921#0 435542924#1 435542920 294592601#1 294592601#2" color="159,8,137"/>
    
    
    <route id="185" edges="-185528581#1 990453574#1 -435561326#0 -435561323 435561323 435561326#0 56150137#1 56150137#2 435561310#0 488357314#1 435542902#0 421101869#1" color="190,199,40"/>
    
    
    <route id="186" edges="95357377#0 435542924#1 435542920 435542901#1 435542903#0 143926851#1 990453574#1 -435561326#0 -435561323 435561323 435561326#0 314011259#1" color="24,224,181"/>
    
    
    <route id="187" edges="95357377#0 435542924#1 435542920 435542901#1 435542903#0 143926851#1 990453574#1 -435561326#0 -435561323 435561323 435561326#0 314011263#2" color="95,214,144"/>
    
    
    <route id="188" edges="E0 143926851#1 990453574#1 -435561326#0 -435561323 435561323 435561326#0 56150137#1 56150137#2 435561310#0 -740147205#1 -740147205#0" color="167,99,182"/>
    
    
    <route id="189" edges="740147205#0 740147205#1 143926851#1 990453574#1 -435561326#0 -435561323 435561323 435561326#0 56150137#1 56150137#2 435561310#0 E1" color="43,107,46"/>
    
    
    <route id="190" edges="435542913#0 435542901#1 435542903#0 143926851#1 990453574#1 -435561326#0 -435561323 435561323 435561326#0 56150137#1 56150137#2 435561310#0 E1" color="23,96,34"/>
    
    
    <route id="191" edges="435542913#0 435542919 626290592 277219207#0 904944343#1 435542922#0 435542918#1 1243008255 23887479 435381827#0 377897004#1 435381825#0 1000784669#1" color="66,12,104"/>
    
    
    <route id="192" edges="435542913#0 435542919 626290592 277219207#0 904944343#1 435542922#0 435542918#1 1243008255 23887479 435381827#0 377897004#1 435381825#0 163148288#1" color="182,11,194"/>
    
    
    <route id="193" edges="435381830#0 377897003#1 435381826#0 163148368#1 56150140 435542925#0 980841225#1 435542921#0 435542924#1 435542920 435542901#1 435542903#0 E1" color="183,183,236"/>
    
    
    <route id="194" edges="435542910#0 435542901#1 435542903#0 143926851#1 990453574#1 -435561326#0 -435561323 435561323 435561326#0 56150137#1 56150137#2 435561310#0 E1" color="22,61,57"/>
    
    
    <route id="195" edges="435542910#0 435542919 626290592 277219207#0 904944343#1 435542922#0 435542918#1 1243008255 23887479 435381827#0 377897004#1 435381825#0 1000784669#1" color="205,241,58"/>
    
    
    <route id="196" edges="435542910#0 435542919 626290592 277219207#0 904944343#1 435542922#0 435542918#1 1243008255 23887479 435381827#0 377897004#1 435381825#0 163148288#1" color="244,125,236"/>
    
    
    <route id="197" edges="435381803#0 163148368#1 56150140 435542925#0 980841225#1 435542921#0 435542924#1 435542920 435542901#1 435542903#0 143926851#1 990453574#1 314011259#1" color="217,216,146"/>
    
    
    <route id="198" edges="435381803#0 163148368#1 56150140 435542925#0 980841225#1 435542921#0 435542924#1 435542920 435542901#1 435542903#0 143926851#1 990453574#1 314011263#2" color="194,230,239"/>
    
    