<routes>
    <route id="1016548847_19442635.qPKW.380" edges="1016548847 19441652#1-AddedOnRampEdge 19441652#1 992666043 19442635"/>
    <route id="1016548860.217_971686034.qPKW.380" edges="1016548860.217 963570022#1-AddedOnRampEdge 963570022#1 963570020#1-AddedOnRampEdge 963570020#1 988591741 180933400 971686034"/>
    <route id="108162303_1141876515.qPKW.380" edges="108162303 977816372 977816372.143 634155184 963570018 963570018-AddedOffRampEdge 963570017 1141876515"/>
    <route id="108162303_988591740#1.qPKW.380" edges="108162303 977816372 977816372.143 634155184 963570018 963570018-AddedOffRampEdge 963570019 963570020#0 963570020#1-AddedOnRampEdge 963570020#1 988591741 988591740#0 988591740#1-AddedOnRampEdge 988591740#1"/>
    <route id="277208927#1-AddedOnRampEdge_1016548859.qPKW.380" edges="277208927#1-AddedOnRampEdge 963570018 963570018-AddedOffRampEdge 963570019 1016548859"/>
    <route id="277208927#1-AddedOnRampEdge_971686034.qPKW.380" edges="277208927#1-AddedOnRampEdge 963570018 963570018-AddedOffRampEdge 963570019 963570020#0 963570020#1-AddedOnRampEdge 963570020#1 988591741 180933400 971686034"/>
    <route id="27828382_634155175.qPKW.380" edges="27828382 27828382-AddedOffRampEdge 974949114 977008894 977008893 977008892 977008891 992666043 992666042 634155175-AddedOnRampEdge 634155175"/>
    <route id="1016548847_19442635.qPKW.381.0" edges="1016548847 19441652#1-AddedOnRampEdge 19441652#1 992666043 19442635"/>
    <route id="1016548860.217_988591740#1.qPKW.381.0" edges="1016548860.217 963570022#1-AddedOnRampEdge 963570022#1 963570020#1-AddedOnRampEdge 963570020#1 988591741 988591740#0 988591740#1-AddedOnRampEdge 988591740#1"/>
    <route id="1070403831#1-AddedOnRampEdge_19440902.qPKW.381.0" edges="1070403831#1-AddedOnRampEdge 977008894 977008893 977008892 1138588478 1138588478-AddedOffRampEdge 19440902"/>
    <route id="108162303_1141876515.qPKW.381.0" edges="108162303 977816372 977816372.143 634155184 963570018 963570018-AddedOffRampEdge 963570017 1141876515"/>
    <route id="108162303_988591740#1.qPKW.381.0" edges="108162303 977816372 977816372.143 634155184 963570018 963570018-AddedOffRampEdge 963570019 963570020#0 963570020#1-AddedOnRampEdge 963570020#1 988591741 988591740#0 988591740#1-AddedOnRampEdge 988591740#1"/>
    <route id="277208926_634155175.qPKW.381.0" edges="277208926 634155175-AddedOnRampEdge 634155175"/>
    <route id="27828382_1040737038.qPKW.381.0" edges="27828382 27828382-AddedOffRampEdge 974949114 977008894 977008893 977008892 1138588478 1138588478-AddedOffRampEdge 1040737038"/>
    <route id="27828382_634155175.qPKW.381.0" edges="27828382 27828382-AddedOffRampEdge 974949114 977008894 977008893 977008892 977008891 992666043 992666042 634155175-AddedOnRampEdge 634155175"/>
    <route id="1016548847_19442635.qPKW.382.0" edges="1016548847 19441652#1-AddedOnRampEdge 19441652#1 992666043 19442635"/>
    <route id="1070403831#1-AddedOnRampEdge_19442635.qPKW.382.0" edges="1070403831#1-AddedOnRampEdge 977008894 977008893 977008892 977008891 992666043 19442635"/>
    <route id="108162303_1141876515.qPKW.382.0" edges="108162303 977816372 977816372.143 634155184 963570018 963570018-AddedOffRampEdge 963570017 1141876515"/>
    <route id="108162303_988591740#1.qPKW.382.0" edges="108162303 977816372 977816372.143 634155184 963570018 963570018-AddedOffRampEdge 963570019 963570020#0 963570020#1-AddedOnRampEdge 963570020#1 988591741 988591740#0 988591740#1-AddedOnRampEdge 988591740#1"/>
    <route id="277208926_634155175.qPKW.382.0" edges="277208926 634155175-AddedOnRampEdge 634155175"/>
    <route id="277208927#1-AddedOnRampEdge_1016548859.qPKW.382.0" edges="277208927#1-AddedOnRampEdge 963570018 963570018-AddedOffRampEdge 963570019 1016548859"/>
    <route id="27828382_634155175.qPKW.382.0" edges="27828382 27828382-AddedOffRampEdge 974949114 977008894 977008893 977008892 977008891 992666043 992666042 634155175-AddedOnRampEdge 634155175"/>
    <route id="1016548847_19442635.qPKW.383.0" edges="1016548847 19441652#1-AddedOnRampEdge 19441652#1 992666043 19442635"/>
    <route id="1070403831#1-AddedOnRampEdge_1040737038.qPKW.383.0" edges="1070403831#1-AddedOnRampEdge 977008894 977008893 977008892 1138588478 1138588478-AddedOffRampEdge 1040737038"/>
    <route id="1070403831#1-AddedOnRampEdge_19442635.qPKW.383.0" edges="1070403831#1-AddedOnRampEdge 977008894 977008893 977008892 977008891 992666043 19442635"/>
    <route id="108162303_1141876515.qPKW.383.0" edges="108162303 977816372 977816372.143 634155184 963570018 963570018-AddedOffRampEdge 963570017 1141876515"/>
    <route id="108162303_988591740#1.qPKW.383.0" edges="108162303 977816372 977816372.143 634155184 963570018 963570018-AddedOffRampEdge 963570019 963570020#0 963570020#1-AddedOnRampEdge 963570020#1 988591741 988591740#0 988591740#1-AddedOnRampEdge 988591740#1"/>
    <route id="277208926_634155175.qPKW.383.0" edges="277208926 634155175-AddedOnRampEdge 634155175"/>
    <route id="277208927#1-AddedOnRampEdge_1016548859.qPKW.383.0" edges="277208927#1-AddedOnRampEdge 963570018 963570018-AddedOffRampEdge 963570019 1016548859"/>
    <route id="277208927#1-AddedOnRampEdge_971686034.qPKW.383.0" edges="277208927#1-AddedOnRampEdge 963570018 963570018-AddedOffRampEdge 963570019 963570020#0 963570020#1-AddedOnRampEdge 963570020#1 988591741 180933400 971686034"/>
    <route id="27828382_634155175.qPKW.383.0" edges="27828382 27828382-AddedOffRampEdge 974949114 977008894 977008893 977008892 977008891 992666043 992666042 634155175-AddedOnRampEdge 634155175"/>
    <route id="1016548847_19442635.qPKW.384.0" edges="1016548847 19441652#1-AddedOnRampEdge 19441652#1 992666043 19442635"/>
    <route id="1016548860.217_988591740#1.qPKW.384.0" edges="1016548860.217 963570022#1-AddedOnRampEdge 963570022#1 963570020#1-AddedOnRampEdge 963570020#1 988591741 988591740#0 988591740#1-AddedOnRampEdge 988591740#1"/>
    <route id="108162303_988591740#1.qPKW.384.0" edges="108162303 977816372 977816372.143 634155184 963570018 963570018-AddedOffRampEdge 963570019 963570020#0 963570020#1-AddedOnRampEdge 963570020#1 988591741 988591740#0 988591740#1-AddedOnRampEdge 988591740#1"/>
    <route id="277208926_634155175.qPKW.384.0" edges="277208926 634155175-AddedOnRampEdge 634155175"/>
    <route id="277208927#1-AddedOnRampEdge_988591740#1.qPKW.384.0" edges="277208927#1-AddedOnRampEdge 963570018 963570018-AddedOffRampEdge 963570019 963570020#0 963570020#1-AddedOnRampEdge 963570020#1 988591741 988591740#0 988591740#1-AddedOnRampEdge 988591740#1"/>
    <route id="27828382_1040737038.qPKW.384.0" edges="27828382 27828382-AddedOffRampEdge 974949114 977008894 977008893 977008892 1138588478 1138588478-AddedOffRampEdge 1040737038"/>
    <route id="27828382_634155175.qPKW.384.0" edges="27828382 27828382-AddedOffRampEdge 974949114 977008894 977008893 977008892 977008891 992666043 992666042 634155175-AddedOnRampEdge 634155175"/>
    <route id="1016548847_19442635.qPKW.385.0" edges="1016548847 19441652#1-AddedOnRampEdge 19441652#1 992666043 19442635"/>
    <route id="1070403831#1-AddedOnRampEdge_1040737038.qPKW.385.0" edges="1070403831#1-AddedOnRampEdge 977008894 977008893 977008892 1138588478 1138588478-AddedOffRampEdge 1040737038"/>
    <route id="1070403831#1-AddedOnRampEdge_19442635.qPKW.385.0" edges="1070403831#1-AddedOnRampEdge 977008894 977008893 977008892 977008891 992666043 19442635"/>
    <route id="108162303_1141876515.qPKW.385.0" edges="108162303 977816372 977816372.143 634155184 963570018 963570018-AddedOffRampEdge 963570017 1141876515"/>
    <route id="108162303_988591740#1.qPKW.385.0" edges="108162303 977816372 977816372.143 634155184 963570018 963570018-AddedOffRampEdge 963570019 963570020#0 963570020#1-AddedOnRampEdge 963570020#1 988591741 988591740#0 988591740#1-AddedOnRampEdge 988591740#1"/>
    <route id="277208926_634155175.qPKW.385.0" edges="277208926 634155175-AddedOnRampEdge 634155175"/>
    <route id="277208927#1-AddedOnRampEdge_1016548859.qPKW.385.0" edges="277208927#1-AddedOnRampEdge 963570018 963570018-AddedOffRampEdge 963570019 1016548859"/>
    <route id="27828382_634155175.qPKW.385.0" edges="27828382 27828382-AddedOffRampEdge 974949114 977008894 977008893 977008892 977008891 992666043 992666042 634155175-AddedOnRampEdge 634155175"/>
    <route id="1016548847_19442635.qPKW.386.0" edges="1016548847 19441652#1-AddedOnRampEdge 19441652#1 992666043 19442635"/>
    <route id="1016548860.217_971686034.qPKW.386.0" edges="1016548860.217 963570022#1-AddedOnRampEdge 963570022#1 963570020#1-AddedOnRampEdge 963570020#1 988591741 180933400 971686034"/>
    <route id="1070403831#1-AddedOnRampEdge_19442635.qPKW.386.0" edges="1070403831#1-AddedOnRampEdge 977008894 977008893 977008892 977008891 992666043 19442635"/>
    <route id="108162303_971686034.qPKW.386.0" edges="108162303 977816372 977816372.143 634155184 963570018 963570018-AddedOffRampEdge 963570019 963570020#0 963570020#1-AddedOnRampEdge 963570020#1 988591741 180933400 971686034"/>
    <route id="108162303_988591740#1.qPKW.386.0" edges="108162303 977816372 977816372.143 634155184 963570018 963570018-AddedOffRampEdge 963570019 963570020#0 963570020#1-AddedOnRampEdge 963570020#1 988591741 988591740#0 988591740#1-AddedOnRampEdge 988591740#1"/>
    <route id="277208926_634155175.qPKW.386.0" edges="277208926 634155175-AddedOnRampEdge 634155175"/>
    <route id="27828382_634155175.qPKW.386.0" edges="27828382 27828382-AddedOffRampEdge 974949114 977008894 977008893 977008892 977008891 992666043 992666042 634155175-AddedOnRampEdge 634155175"/>
    <route id="1016548847_19442635.qPKW.387.0" edges="1016548847 19441652#1-AddedOnRampEdge 19441652#1 992666043 19442635"/>
    <route id="1016548860.217_988591740#1.qPKW.387.0" edges="1016548860.217 963570022#1-AddedOnRampEdge 963570022#1 963570020#1-AddedOnRampEdge 963570020#1 988591741 988591740#0 988591740#1-AddedOnRampEdge 988591740#1"/>
    <route id="108162303_1141876515.qPKW.387.0" edges="108162303 977816372 977816372.143 634155184 963570018 963570018-AddedOffRampEdge 963570017 1141876515"/>
    <route id="108162303_988591740#1.qPKW.387.0" edges="108162303 977816372 977816372.143 634155184 963570018 963570018-AddedOffRampEdge 963570019 963570020#0 963570020#1-AddedOnRampEdge 963570020#1 988591741 988591740#0 988591740#1-AddedOnRampEdge 988591740#1"/>
    <route id="277208926_634155175.qPKW.387.0" edges="277208926 634155175-AddedOnRampEdge 634155175"/>
    <route id="27828382_1040737038.qPKW.387.0" edges="27828382 27828382-AddedOffRampEdge 974949114 977008894 977008893 977008892 1138588478 1138588478-AddedOffRampEdge 1040737038"/>
    <route id="27828382_634155175.qPKW.387.0" edges="27828382 27828382-AddedOffRampEdge 974949114 977008894 977008893 977008892 977008891 992666043 992666042 634155175-AddedOnRampEdge 634155175"/>
    <route id="1016548847_19442635.qPKW.388.0" edges="1016548847 19441652#1-AddedOnRampEdge 19441652#1 992666043 19442635"/>
    <route id="1070403831#1-AddedOnRampEdge_1040737038.qPKW.388.0" edges="1070403831#1-AddedOnRampEdge 977008894 977008893 977008892 1138588478 1138588478-AddedOffRampEdge 1040737038"/>
    <route id="108162303_988591740#1.qPKW.388.0" edges="108162303 977816372 977816372.143 634155184 963570018 963570018-AddedOffRampEdge 963570019 963570020#0 963570020#1-AddedOnRampEdge 963570020#1 988591741 988591740#0 988591740#1-AddedOnRampEdge 988591740#1"/>
    <route id="277208926_634155175.qPKW.388.0" edges="277208926 634155175-AddedOnRampEdge 634155175"/>
    <route id="277208927#1-AddedOnRampEdge_1016548859.qPKW.388.0" edges="277208927#1-AddedOnRampEdge 963570018 963570018-AddedOffRampEdge 963570019 1016548859"/>
    <route id="277208927#1-AddedOnRampEdge_988591740#1.qPKW.388.0" edges="277208927#1-AddedOnRampEdge 963570018 963570018-AddedOffRampEdge 963570019 963570020#0 963570020#1-AddedOnRampEdge 963570020#1 988591741 988591740#0 988591740#1-AddedOnRampEdge 988591740#1"/>
    <route id="27828382_1040737038.qPKW.388.0" edges="27828382 27828382-AddedOffRampEdge 974949114 977008894 977008893 977008892 1138588478 1138588478-AddedOffRampEdge 1040737038"/>
    <route id="27828382_634155175.qPKW.388.0" edges="27828382 27828382-AddedOffRampEdge 974949114 977008894 977008893 977008892 977008891 992666043 992666042 634155175-AddedOnRampEdge 634155175"/>
    <route id="1016548847_19442635.qPKW.389.0" edges="1016548847 19441652#1-AddedOnRampEdge 19441652#1 992666043 19442635"/>
    <route id="1070403831#1-AddedOnRampEdge_1040737038.qPKW.389.0" edges="1070403831#1-AddedOnRampEdge 977008894 977008893 977008892 1138588478 1138588478-AddedOffRampEdge 1040737038"/>
    <route id="1070403831#1-AddedOnRampEdge_19442635.qPKW.389.0" edges="1070403831#1-AddedOnRampEdge 977008894 977008893 977008892 977008891 992666043 19442635"/>
    <route id="108162303_1141876515.qPKW.389.0" edges="108162303 977816372 977816372.143 634155184 963570018 963570018-AddedOffRampEdge 963570017 1141876515"/>
    <route id="108162303_988591740#1.qPKW.389.0" edges="108162303 977816372 977816372.143 634155184 963570018 963570018-AddedOffRampEdge 963570019 963570020#0 963570020#1-AddedOnRampEdge 963570020#1 988591741 988591740#0 988591740#1-AddedOnRampEdge 988591740#1"/>
    <route id="277208926_634155175.qPKW.389.0" edges="277208926 634155175-AddedOnRampEdge 634155175"/>
    <route id="277208927#1-AddedOnRampEdge_1016548859.qPKW.389.0" edges="277208927#1-AddedOnRampEdge 963570018 963570018-AddedOffRampEdge 963570019 1016548859"/>
    <route id="27828382_634155175.qPKW.389.0" edges="27828382 27828382-AddedOffRampEdge 974949114 977008894 977008893 977008892 977008891 992666043 992666042 634155175-AddedOnRampEdge 634155175"/>
    <route id="1016548847_19442635.qPKW.390.0" edges="1016548847 19441652#1-AddedOnRampEdge 19441652#1 992666043 19442635"/>
    <route id="1070403831#1-AddedOnRampEdge_1040737038.qPKW.390.0" edges="1070403831#1-AddedOnRampEdge 977008894 977008893 977008892 1138588478 1138588478-AddedOffRampEdge 1040737038"/>
    <route id="1070403831#1-AddedOnRampEdge_19442635.qPKW.390.0" edges="1070403831#1-AddedOnRampEdge 977008894 977008893 977008892 977008891 992666043 19442635"/>
    <route id="108162303_1141876515.qPKW.390.0" edges="108162303 977816372 977816372.143 634155184 963570018 963570018-AddedOffRampEdge 963570017 1141876515"/>
    <route id="108162303_988591740#1.qPKW.390.0" edges="108162303 977816372 977816372.143 634155184 963570018 963570018-AddedOffRampEdge 963570019 963570020#0 963570020#1-AddedOnRampEdge 963570020#1 988591741 988591740#0 988591740#1-AddedOnRampEdge 988591740#1"/>
    <route id="277208926_634155175.qPKW.390.0" edges="277208926 634155175-AddedOnRampEdge 634155175"/>
    <route id="277208927#1-AddedOnRampEdge_1016548859.qPKW.390.0" edges="277208927#1-AddedOnRampEdge 963570018 963570018-AddedOffRampEdge 963570019 1016548859"/>
    <route id="27828382_634155175.qPKW.390.0" edges="27828382 27828382-AddedOffRampEdge 974949114 977008894 977008893 977008892 977008891 992666043 992666042 634155175-AddedOnRampEdge 634155175"/>
</routes>
