<?xml version='1.0' encoding='UTF-8'?>
<routes xmlns:xsi="http://www.w3.org/2001/XMLSchema-instance" xsi:noNamespaceSchemaLocation="http://sumo.dlr.de/xsd/routes_file.xsd">
    <vType id="hdv" length="4.3" carFollowModel="IDM" emergencyDecel="4.0" />

    
    <route id="0" edges="683657786#1-AddedOnRampEdge 988591740#1-AddedOnRampEdge 988591740#1" /> 
    
    <route id="1" edges="277208926 634155175-AddedOnRampEdge 634155175" />
    
    <route id="2" edges="27828382 27828382-AddedOffRampEdge 180933397" />
    
    <route id="3" edges="19441652#0 19441652#1-AddedOnRampEdge 19441652#1 992666043 19442635" />
    
    <route id="4" edges="1016548847 19441652#1-AddedOnRampEdge 19441652#1 992666043 19442635" />
    
    <route id="5" edges="277208927#1-AddedOnRampEdge 963570018 963570018-AddedOffRampEdge 963570017 1141876515" />
    
    <route id="6" edges="277208927#1-AddedOnRampEdge 963570018 963570018-AddedOffRampEdge 963570019 1016548859" />
    
    <route id="7" edges="108162303 977816372 977816372.143 19441728-AddedOffRampEdge 19441728-AddedOffRampEdge.29 1192589176" />
    
    <route id="8" edges="108162303 977816372 977816372.143 19441728-AddedOffRampEdge 19441728-AddedOffRampEdge.29 579664791" />
    
    <route id="9" edges="19441652#0 19441652#1-AddedOnRampEdge 19441652#1 992666043 992666042 634155175-AddedOnRampEdge 634155175" />
    
    <route id="10" edges="1016548847 19441652#1-AddedOnRampEdge 19441652#1 992666043 992666042 634155175-AddedOnRampEdge 634155175" />
    
    <route id="11" edges="1070403831#1-AddedOnRampEdge 977008894 977008893 977008892 1138588478 1138588478-AddedOffRampEdge 1040737038" />
    
    <route id="12" edges="1070403831#1-AddedOnRampEdge 977008894 977008893 977008892 1138588478 1138588478-AddedOffRampEdge 19440902" />
    
    <route id="13" edges="1070403831#1-AddedOnRampEdge 977008894 977008893 977008892 977008891 992666043 19442635" />
    
    <route id="14" edges="1016548860.217 963570022#1-AddedOnRampEdge 963570022#1 963570020#1-AddedOnRampEdge 963570020#1 988591741 180933400 971686034" />
    
    <route id="15" edges="108162303 977816372 977816372.143 634155184 963570018 963570018-AddedOffRampEdge 963570017 1141876515" />
    
    <route id="16" edges="108162303 977816372 977816372.143 634155184 963570018 963570018-AddedOffRampEdge 963570019 1016548859" />
    
    <route id="17" edges="108162413#1.70 963570022#1-AddedOnRampEdge 963570022#1 963570020#1-AddedOnRampEdge 963570020#1 988591741 180933400 971686034" />
    
    <route id="18" edges="1016548860.217 963570022#1-AddedOnRampEdge 963570022#1 963570020#1-AddedOnRampEdge 963570020#1 988591741 988591740#0 988591740#1-AddedOnRampEdge 988591740#1" />
    
    <route id="19" edges="27828382 27828382-AddedOffRampEdge 974949114 977008894 977008893 977008892 1138588478 1138588478-AddedOffRampEdge 1040737038" />
    
    <route id="20" edges="27828382 27828382-AddedOffRampEdge 974949114 977008894 977008893 977008892 1138588478 1138588478-AddedOffRampEdge 19440902" />
    
    <route id="21" edges="27828382 27828382-AddedOffRampEdge 974949114 977008894 977008893 977008892 977008891 992666043 19442635" />
    
    <route id="22" edges="108162413#1.70 963570022#1-AddedOnRampEdge 963570022#1 963570020#1-AddedOnRampEdge 963570020#1 988591741 988591740#0 988591740#1-AddedOnRampEdge 988591740#1" />
    
    <route id="23" edges="1070403831#1-AddedOnRampEdge 977008894 977008893 977008892 977008891 992666043 992666042 634155175-AddedOnRampEdge 634155175" />
    
    <route id="24" edges="277208927#1-AddedOnRampEdge 963570018 963570018-AddedOffRampEdge 963570019 963570020#0 963570020#1-AddedOnRampEdge 963570020#1 988591741 180933400 971686034" />
    
    <route id="25" edges="27828382 27828382-AddedOffRampEdge 974949114 977008894 977008893 977008892 977008891 992666043 992666042 634155175-AddedOnRampEdge 634155175" />
    
    <route id="26" edges="277208927#1-AddedOnRampEdge 963570018 963570018-AddedOffRampEdge 963570019 963570020#0 963570020#1-AddedOnRampEdge 963570020#1 988591741 988591740#0 988591740#1-AddedOnRampEdge 988591740#1" />
    
    <route id="27" edges="108162303 977816372 977816372.143 634155184 963570018 963570018-AddedOffRampEdge 963570019 963570020#0 963570020#1-AddedOnRampEdge 963570020#1 988591741 180933400 971686034" />
    
    <route id="28" edges="108162303 977816372 977816372.143 634155184 963570018 963570018-AddedOffRampEdge 963570019 963570020#0 963570020#1-AddedOnRampEdge 963570020#1 988591741 988591740#0 988591740#1-AddedOnRampEdge 988591740#1" />

  
<flow id="flow_15_380" route="15" begin="0" end="60" vehsPerHour="480" speed="125.44" type="hdv" /><flow id="flow_16_380" route="16" begin="0" end="60" vehsPerHour="1020" speed="105.14" type="hdv" />
<flow id="flow_27_380" route="27" begin="0" end="60" vehsPerHour="3480" speed="107.51" type="hdv" /><flow id="flow_28_380" route="28" begin="0" end="60" vehsPerHour="3660" speed="102.44" type="hdv" />
<flow id="flow_6_380" route="6" begin="0" end="60" vehsPerHour="540" speed="88.90" type="hdv" /><flow id="flow_24_380" route="24" begin="0" end="60" vehsPerHour="3000" speed="104.85" type="hdv" /><flow id="flow_26_380" route="26" begin="0" end="60" vehsPerHour="3180" speed="99.47" type="hdv" /><flow id="flow_14_380" route="14" begin="0" end="60" vehsPerHour="2100" speed="105.56" type="hdv" /><flow id="flow_17_380" route="17" begin="0" end="60" vehsPerHour="2100" speed="105.56" type="hdv" /><flow id="flow_18_380" route="18" begin="0" end="60" vehsPerHour="2280" speed="97.85" type="hdv" /><flow id="flow_22_380" route="22" begin="0" end="60" vehsPerHour="2280" speed="97.85" type="hdv" /><flow id="flow_1_380" route="1" begin="0" end="60" vehsPerHour="2400" speed="92.29" type="hdv" /><flow id="flow_9_380" route="9" begin="0" end="60" vehsPerHour="3300" speed="93.81" type="hdv" /><flow id="flow_10_380" route="10" begin="0" end="60" vehsPerHour="3300" speed="93.81" type="hdv" /><flow id="flow_23_380" route="23" begin="0" end="60" vehsPerHour="7380" speed="104.03" type="hdv" /><flow id="flow_25_380" route="25" begin="0" end="60" vehsPerHour="8220" speed="105.30" type="hdv" /><flow id="flow_3_380" route="3" begin="0" end="60" vehsPerHour="900" speed="98.07" type="hdv" /><flow id="flow_4_380" route="4" begin="0" end="60" vehsPerHour="900" speed="98.07" type="hdv" /><flow id="flow_13_380" route="13" begin="0" end="60" vehsPerHour="4980" speed="109.33" type="hdv" /><flow id="flow_21_380" route="21" begin="0" end="60" vehsPerHour="5820" speed="110.50" type="hdv" /><flow id="flow_11_380" route="11" begin="0" end="60" vehsPerHour="3540" speed="110.44" type="hdv" /><flow id="flow_12_380" route="12" begin="0" end="60" vehsPerHour="3540" speed="110.44" type="hdv" /><flow id="flow_19_380" route="19" begin="0" end="60" vehsPerHour="4380" speed="111.84" type="hdv" /><flow id="flow_20_380" route="20" begin="0" end="60" vehsPerHour="4380" speed="111.84" type="hdv" /><flow id="flow_15_381" route="15" begin="60" end="120" vehsPerHour="1200" speed="99.08" type="hdv" /><flow id="flow_16_381" route="16" begin="60" end="120" vehsPerHour="1920" speed="93.97" type="hdv" /><flow id="flow_27_381" route="27" begin="60" end="120" vehsPerHour="7260" speed="102.57" type="hdv" /><flow id="flow_28_381" route="28" begin="60" end="120" vehsPerHour="8580" speed="102.93" type="hdv" /><flow id="flow_6_381" route="6" begin="60" end="120" vehsPerHour="720" speed="89.88" type="hdv" /><flow id="flow_24_381" route="24" begin="60" end="120" vehsPerHour="6060" speed="103.09" type="hdv" /><flow id="flow_26_381" route="26" begin="60" end="120" vehsPerHour="7380" speed="103.42" type="hdv" /><flow id="flow_14_381" route="14" begin="60" end="120" vehsPerHour="4440" speed="106.49" type="hdv" /><flow id="flow_17_381" route="17" begin="60" end="120" vehsPerHour="4440" speed="106.49" type="hdv" /><flow id="flow_18_381" route="18" begin="60" end="120" vehsPerHour="5760" speed="106.34" type="hdv" /><flow id="flow_22_381" route="22" begin="60" end="120" vehsPerHour="5760" speed="106.34" type="hdv" /><flow id="flow_1_381" route="1" begin="60" end="120" vehsPerHour="4860" speed="101.15" type="hdv" /><flow id="flow_9_381" route="9" begin="60" end="120" vehsPerHour="6120" speed="100.50" type="hdv" /><flow id="flow_10_381" route="10" begin="60" end="120" vehsPerHour="6120" speed="100.50" type="hdv" /><flow id="flow_23_381" route="23" begin="60" end="120" vehsPerHour="15540" speed="107.72" type="hdv" /><flow id="flow_25_381" route="25" begin="60" end="120" vehsPerHour="17100" speed="107.68" type="hdv" /><flow id="flow_3_381" route="3" begin="60" end="120" vehsPerHour="1260" speed="98.69" type="hdv" /><flow id="flow_4_381" route="4" begin="60" end="120" vehsPerHour="1260" speed="98.69" type="hdv" /><flow id="flow_13_381" route="13" begin="60" end="120" vehsPerHour="10680" speed="110.68" type="hdv" /><flow id="flow_21_381" route="21" begin="60" end="120" vehsPerHour="12240" speed="110.29" type="hdv" /><flow id="flow_11_381" route="11" begin="60" end="120" vehsPerHour="8400" speed="113.74" type="hdv" /><flow id="flow_12_381" route="12" begin="60" end="120" vehsPerHour="8400" speed="113.74" type="hdv" /><flow id="flow_19_381" route="19" begin="60" end="120" vehsPerHour="9960" speed="112.75" type="hdv" /><flow id="flow_20_381" route="20" begin="60" end="120" vehsPerHour="9960" speed="112.75" type="hdv" /><flow id="flow_15_382" route="15" begin="120" end="180" vehsPerHour="1200" speed="107.98" type="hdv" /><flow id="flow_16_382" route="16" begin="120" end="180" vehsPerHour="3120" speed="98.03" type="hdv" /><flow id="flow_27_382" route="27" begin="120" end="180" vehsPerHour="7680" speed="97.92" type="hdv" /><flow id="flow_28_382" route="28" begin="120" end="180" vehsPerHour="8580" speed="98.77" type="hdv" /><flow id="flow_6_382" route="6" begin="120" end="180" vehsPerHour="1920" speed="90.08" type="hdv" /><flow id="flow_24_382" route="24" begin="120" end="180" vehsPerHour="6480" speed="96.42" type="hdv" /><flow id="flow_26_382" route="26" begin="120" end="180" vehsPerHour="7380" speed="97.59" type="hdv" /><flow id="flow_14_382" route="14" begin="120" end="180" vehsPerHour="3660" speed="94.57" type="hdv" /><flow id="flow_17_382" route="17" begin="120" end="180" vehsPerHour="3660" speed="94.57" type="hdv" /><flow id="flow_18_382" route="18" begin="120" end="180" vehsPerHour="4560" speed="96.54" type="hdv" /><flow id="flow_22_382" route="22" begin="120" end="180" vehsPerHour="4560" speed="96.54" type="hdv" /><flow id="flow_1_382" route="1" begin="120" end="180" vehsPerHour="4320" speed="101.47" type="hdv" /><flow id="flow_9_382" route="9" begin="120" end="180" vehsPerHour="6420" speed="106.34" type="hdv" /><flow id="flow_10_382" route="10" begin="120" end="180" vehsPerHour="6420" speed="106.34" type="hdv" /><flow id="flow_23_382" route="23" begin="120" end="180" vehsPerHour="16080" speed="106.67" type="hdv" /><flow id="flow_25_382" route="25" begin="120" end="180" vehsPerHour="17100" speed="106.90" type="hdv" /><flow id="flow_3_382" route="3" begin="120" end="180" vehsPerHour="2100" speed="119.96" type="hdv" /><flow id="flow_4_382" route="4" begin="120" end="180" vehsPerHour="2100" speed="119.96" type="hdv" /><flow id="flow_13_382" route="13" begin="120" end="180" vehsPerHour="11760" speed="109.02" type="hdv" /><flow id="flow_21_382" route="21" begin="120" end="180" vehsPerHour="12780" speed="109.07" type="hdv" /><flow id="flow_11_382" route="11" begin="120" end="180" vehsPerHour="8100" speed="107.63" type="hdv" /><flow id="flow_12_382" route="12" begin="120" end="180" vehsPerHour="8100" speed="107.63" type="hdv" /><flow id="flow_19_382" route="19" begin="120" end="180" vehsPerHour="9120" speed="107.90" type="hdv" /><flow id="flow_20_382" route="20" begin="120" end="180" vehsPerHour="9120" speed="107.90" type="hdv" /><flow id="flow_15_383" route="15" begin="180" end="240" vehsPerHour="1380" speed="107.48" type="hdv" /><flow id="flow_16_383" route="16" begin="180" end="240" vehsPerHour="2520" speed="97.09" type="hdv" /><flow id="flow_27_383" route="27" begin="180" end="240" vehsPerHour="10200" speed="103.49" type="hdv" /><flow id="flow_28_383" route="28" begin="180" end="240" vehsPerHour="10740" speed="100.41" type="hdv" /><flow id="flow_6_383" route="6" begin="180" end="240" vehsPerHour="1140" speed="88.78" type="hdv" /><flow id="flow_24_383" route="24" begin="180" end="240" vehsPerHour="8820" speed="102.89" type="hdv" /><flow id="flow_26_383" route="26" begin="180" end="240" vehsPerHour="9360" speed="99.50" type="hdv" /><flow id="flow_14_383" route="14" begin="180" end="240" vehsPerHour="6180" speed="104.06" type="hdv" /><flow id="flow_17_383" route="17" begin="180" end="240" vehsPerHour="6180" speed="104.06" type="hdv" /><flow id="flow_18_383" route="18" begin="180" end="240" vehsPerHour="6720" speed="99.06" type="hdv" /><flow id="flow_22_383" route="22" begin="180" end="240" vehsPerHour="6720" speed="99.06" type="hdv" /><flow id="flow_1_383" route="1" begin="180" end="240" vehsPerHour="5280" speed="99.47" type="hdv" /><flow id="flow_9_383" route="9" begin="180" end="240" vehsPerHour="7620" speed="101.19" type="hdv" /><flow id="flow_10_383" route="10" begin="180" end="240" vehsPerHour="7620" speed="101.19" type="hdv" /><flow id="flow_23_383" route="23" begin="180" end="240" vehsPerHour="17640" speed="107.17" type="hdv" /><flow id="flow_25_383" route="25" begin="180" end="240" vehsPerHour="18840" speed="107.28" type="hdv" /><flow id="flow_3_383" route="3" begin="180" end="240" vehsPerHour="2340" speed="106.03" type="hdv" /><flow id="flow_4_383" route="4" begin="180" end="240" vehsPerHour="2340" speed="106.03" type="hdv" /><flow id="flow_13_383" route="13" begin="180" end="240" vehsPerHour="12360" speed="110.65" type="hdv" /><flow id="flow_21_383" route="21" begin="180" end="240" vehsPerHour="13560" speed="110.40" type="hdv" /><flow id="flow_11_383" route="11" begin="180" end="240" vehsPerHour="8460" speed="109.56" type="hdv" /><flow id="flow_12_383" route="12" begin="180" end="240" vehsPerHour="8460" speed="109.56" type="hdv" /><flow id="flow_19_383" route="19" begin="180" end="240" vehsPerHour="9660" speed="109.40" type="hdv" /><flow id="flow_20_383" route="20" begin="180" end="240" vehsPerHour="9660" speed="109.40" type="hdv" /><flow id="flow_15_384" route="15" begin="240" end="300" vehsPerHour="720" speed="89.59" type="hdv" /><flow id="flow_16_384" route="16" begin="240" end="300" vehsPerHour="1680" speed="83.63" type="hdv" /><flow id="flow_27_384" route="27" begin="240" end="300" vehsPerHour="8220" speed="92.66" type="hdv" /><flow id="flow_28_384" route="28" begin="240" end="300" vehsPerHour="9840" speed="95.28" type="hdv" /><flow id="flow_6_384" route="6" begin="240" end="300" vehsPerHour="960" speed="78.85" type="hdv" /><flow id="flow_24_384" route="24" begin="240" end="300" vehsPerHour="7500" speed="93.12" type="hdv" /><flow id="flow_26_384" route="26" begin="240" end="300" vehsPerHour="9120" speed="96.01" type="hdv" /><flow id="flow_14_384" route="14" begin="240" end="300" vehsPerHour="5580" speed="99.93" type="hdv" /><flow id="flow_17_384" route="17" begin="240" end="300" vehsPerHour="5580" speed="99.93" type="hdv" /><flow id="flow_18_384" route="18" begin="240" end="300" vehsPerHour="7200" speed="102.77" type="hdv" /><flow id="flow_22_384" route="22" begin="240" end="300" vehsPerHour="7200" speed="102.77" type="hdv" /><flow id="flow_1_384" route="1" begin="240" end="300" vehsPerHour="7140" speed="103.83" type="hdv" /><flow id="flow_9_384" route="9" begin="240" end="300" vehsPerHour="8520" speed="105.46" type="hdv" /><flow id="flow_10_384" route="10" begin="240" end="300" vehsPerHour="8520" speed="105.46" type="hdv" /><flow id="flow_23_384" route="23" begin="240" end="300" vehsPerHour="17100" speed="109.46" type="hdv" /><flow id="flow_25_384" route="25" begin="240" end="300" vehsPerHour="18960" speed="110.47" type="hdv" /><flow id="flow_3_384" route="3" begin="240" end="300" vehsPerHour="1380" speed="110.01" type="hdv" /><flow id="flow_4_384" route="4" begin="240" end="300" vehsPerHour="1380" speed="110.01" type="hdv" /><flow id="flow_13_384" route="13" begin="240" end="300" vehsPerHour="9960" speed="112.01" type="hdv" /><flow id="flow_21_384" route="21" begin="240" end="300" vehsPerHour="11820" speed="113.12" type="hdv" /><flow id="flow_11_384" route="11" begin="240" end="300" vehsPerHour="7800" speed="113.29" type="hdv" /><flow id="flow_12_384" route="12" begin="240" end="300" vehsPerHour="7800" speed="113.29" type="hdv" /><flow id="flow_19_384" route="19" begin="240" end="300" vehsPerHour="9660" speed="114.59" type="hdv" /><flow id="flow_20_384" route="20" begin="240" end="300" vehsPerHour="9660" speed="114.59" type="hdv" /><flow id="flow_15_385" route="15" begin="300" end="360" vehsPerHour="1500" speed="107.23" type="hdv" /><flow id="flow_16_385" route="16" begin="300" end="360" vehsPerHour="3120" speed="92.79" type="hdv" /><flow id="flow_27_385" route="27" begin="300" end="360" vehsPerHour="8820" speed="96.71" type="hdv" /><flow id="flow_28_385" route="28" begin="300" end="360" vehsPerHour="10020" speed="99.12" type="hdv" /><flow id="flow_6_385" route="6" begin="300" end="360" vehsPerHour="1620" speed="81.24" type="hdv" /><flow id="flow_24_385" route="24" begin="300" end="360" vehsPerHour="7320" speed="95.16" type="hdv" /><flow id="flow_26_385" route="26" begin="300" end="360" vehsPerHour="8520" speed="98.07" type="hdv" /><flow id="flow_14_385" route="14" begin="300" end="360" vehsPerHour="4500" speed="97.75" type="hdv" /><flow id="flow_17_385" route="17" begin="300" end="360" vehsPerHour="4500" speed="97.75" type="hdv" /><flow id="flow_18_385" route="18" begin="300" end="360" vehsPerHour="5700" speed="101.39" type="hdv" /><flow id="flow_22_385" route="22" begin="300" end="360" vehsPerHour="5700" speed="101.39" type="hdv" /><flow id="flow_1_385" route="1" begin="300" end="360" vehsPerHour="4920" speed="99.34" type="hdv" /><flow id="flow_9_385" route="9" begin="300" end="360" vehsPerHour="6840" speed="104.27" type="hdv" /><flow id="flow_10_385" route="10" begin="300" end="360" vehsPerHour="6840" speed="104.27" type="hdv" /><flow id="flow_23_385" route="23" begin="300" end="360" vehsPerHour="16200" speed="107.23" type="hdv" /><flow id="flow_25_385" route="25" begin="300" end="360" vehsPerHour="16740" speed="104.36" type="hdv" /><flow id="flow_3_385" route="3" begin="300" end="360" vehsPerHour="1920" speed="118.05" type="hdv" /><flow id="flow_4_385" route="4" begin="300" end="360" vehsPerHour="1920" speed="118.05" type="hdv" /><flow id="flow_13_385" route="13" begin="300" end="360" vehsPerHour="11280" speed="110.79" type="hdv" /><flow id="flow_21_385" route="21" begin="300" end="360" vehsPerHour="11820" speed="106.37" type="hdv" /><flow id="flow_11_385" route="11" begin="300" end="360" vehsPerHour="8280" speed="108.10" type="hdv" /><flow id="flow_12_385" route="12" begin="300" end="360" vehsPerHour="8280" speed="108.10" type="hdv" /><flow id="flow_19_385" route="19" begin="300" end="360" vehsPerHour="8820" speed="102.55" type="hdv" /><flow id="flow_20_385" route="20" begin="300" end="360" vehsPerHour="8820" speed="102.55" type="hdv" /><flow id="flow_15_386" route="15" begin="360" end="420" vehsPerHour="900" speed="105.90" type="hdv" /><flow id="flow_16_386" route="16" begin="360" end="420" vehsPerHour="1800" speed="92.08" type="hdv" /><flow id="flow_27_386" route="27" begin="360" end="420" vehsPerHour="8760" speed="102.02" type="hdv" /><flow id="flow_28_386" route="28" begin="360" end="420" vehsPerHour="9600" speed="99.99" type="hdv" /><flow id="flow_6_386" route="6" begin="360" end="420" vehsPerHour="900" speed="81.02" type="hdv" /><flow id="flow_24_386" route="24" begin="360" end="420" vehsPerHour="7860" speed="101.44" type="hdv" /><flow id="flow_26_386" route="26" begin="360" end="420" vehsPerHour="8700" speed="99.23" type="hdv" /><flow id="flow_14_386" route="14" begin="360" end="420" vehsPerHour="5820" speed="102.49" type="hdv" /><flow id="flow_17_386" route="17" begin="360" end="420" vehsPerHour="5820" speed="102.49" type="hdv" /><flow id="flow_18_386" route="18" begin="360" end="420" vehsPerHour="6660" speed="99.17" type="hdv" /><flow id="flow_22_386" route="22" begin="360" end="420" vehsPerHour="6660" speed="99.17" type="hdv" /><flow id="flow_1_386" route="1" begin="360" end="420" vehsPerHour="5160" speed="97.67" type="hdv" /><flow id="flow_9_386" route="9" begin="360" end="420" vehsPerHour="7440" speed="97.60" type="hdv" /><flow id="flow_10_386" route="10" begin="360" end="420" vehsPerHour="7440" speed="97.60" type="hdv" /><flow id="flow_23_386" route="23" begin="360" end="420" vehsPerHour="16020" speed="108.52" type="hdv" /><flow id="flow_25_386" route="25" begin="360" end="420" vehsPerHour="17460" speed="109.53" type="hdv" /><flow id="flow_3_386" route="3" begin="360" end="420" vehsPerHour="2280" speed="97.41" type="hdv" /><flow id="flow_4_386" route="4" begin="360" end="420" vehsPerHour="2280" speed="97.41" type="hdv" /><flow id="flow_13_386" route="13" begin="360" end="420" vehsPerHour="10860" speed="113.42" type="hdv" /><flow id="flow_21_386" route="21" begin="360" end="420" vehsPerHour="12300" speed="114.27" type="hdv" /><flow id="flow_11_386" route="11" begin="360" end="420" vehsPerHour="6900" speed="115.72" type="hdv" /><flow id="flow_12_386" route="12" begin="360" end="420" vehsPerHour="6900" speed="115.72" type="hdv" /><flow id="flow_19_386" route="19" begin="360" end="420" vehsPerHour="8340" speed="116.51" type="hdv" /><flow id="flow_20_386" route="20" begin="360" end="420" vehsPerHour="8340" speed="116.51" type="hdv" /><flow id="flow_15_387" route="15" begin="420" end="480" vehsPerHour="1380" speed="106.02" type="hdv" /><flow id="flow_16_387" route="16" begin="420" end="480" vehsPerHour="2100" speed="87.91" type="hdv" /><flow id="flow_27_387" route="27" begin="420" end="480" vehsPerHour="7440" speed="95.36" type="hdv" /><flow id="flow_28_387" route="28" begin="420" end="480" vehsPerHour="9120" speed="98.32" type="hdv" /><flow id="flow_6_387" route="6" begin="420" end="480" vehsPerHour="720" speed="73.43" type="hdv" /><flow id="flow_24_387" route="24" begin="420" end="480" vehsPerHour="6060" speed="93.78" type="hdv" /><flow id="flow_26_387" route="26" begin="420" end="480" vehsPerHour="7740" speed="97.33" type="hdv" /><flow id="flow_14_387" route="14" begin="420" end="480" vehsPerHour="4500" speed="97.64" type="hdv" /><flow id="flow_17_387" route="17" begin="420" end="480" vehsPerHour="4500" speed="97.64" type="hdv" /><flow id="flow_18_387" route="18" begin="420" end="480" vehsPerHour="6180" speed="101.94" type="hdv" /><flow id="flow_22_387" route="22" begin="420" end="480" vehsPerHour="6180" speed="101.94" type="hdv" /><flow id="flow_1_387" route="1" begin="420" end="480" vehsPerHour="6060" speed="91.35" type="hdv" /><flow id="flow_9_387" route="9" begin="420" end="480" vehsPerHour="7320" speed="95.26" type="hdv" /><flow id="flow_10_387" route="10" begin="420" end="480" vehsPerHour="7320" speed="95.26" type="hdv" /><flow id="flow_23_387" route="23" begin="420" end="480" vehsPerHour="15720" speed="106.60" type="hdv" /><flow id="flow_25_387" route="25" begin="420" end="480" vehsPerHour="17220" speed="106.28" type="hdv" /><flow id="flow_3_387" route="3" begin="420" end="480" vehsPerHour="1260" speed="106.20" type="hdv" /><flow id="flow_4_387" route="4" begin="420" end="480" vehsPerHour="1260" speed="106.20" type="hdv" /><flow id="flow_13_387" route="13" begin="420" end="480" vehsPerHour="9660" speed="113.49" type="hdv" /><flow id="flow_21_387" route="21" begin="420" end="480" vehsPerHour="11160" speed="112.25" type="hdv" /><flow id="flow_11_387" route="11" begin="420" end="480" vehsPerHour="7380" speed="116.72" type="hdv" /><flow id="flow_12_387" route="12" begin="420" end="480" vehsPerHour="7380" speed="116.72" type="hdv" /><flow id="flow_19_387" route="19" begin="420" end="480" vehsPerHour="8880" speed="114.56" type="hdv" /><flow id="flow_20_387" route="20" begin="420" end="480" vehsPerHour="8880" speed="114.56" type="hdv" /><flow id="flow_15_388" route="15" begin="480" end="540" vehsPerHour="780" speed="74.81" type="hdv" /><flow id="flow_16_388" route="16" begin="480" end="540" vehsPerHour="1740" speed="69.24" type="hdv" /><flow id="flow_27_388" route="27" begin="480" end="540" vehsPerHour="6240" speed="87.37" type="hdv" /><flow id="flow_28_388" route="28" begin="480" end="540" vehsPerHour="7200" speed="91.17" type="hdv" /><flow id="flow_6_388" route="6" begin="480" end="540" vehsPerHour="960" speed="64.78" type="hdv" /><flow id="flow_24_388" route="24" begin="480" end="540" vehsPerHour="5460" speed="89.23" type="hdv" /><flow id="flow_26_388" route="26" begin="480" end="540" vehsPerHour="6420" speed="93.28" type="hdv" /><flow id="flow_14_388" route="14" begin="480" end="540" vehsPerHour="3600" speed="93.65" type="hdv" /><flow id="flow_17_388" route="17" begin="480" end="540" vehsPerHour="3600" speed="93.65" type="hdv" /><flow id="flow_18_388" route="18" begin="480" end="540" vehsPerHour="4560" speed="98.55" type="hdv" /><flow id="flow_22_388" route="22" begin="480" end="540" vehsPerHour="4560" speed="98.55" type="hdv" /><flow id="flow_1_388" route="1" begin="480" end="540" vehsPerHour="4800" speed="100.06" type="hdv" /><flow id="flow_9_388" route="9" begin="480" end="540" vehsPerHour="6300" speed="106.80" type="hdv" /><flow id="flow_10_388" route="10" begin="480" end="540" vehsPerHour="6300" speed="106.80" type="hdv" /><flow id="flow_23_388" route="23" begin="480" end="540" vehsPerHour="15720" speed="107.96" type="hdv" /><flow id="flow_25_388" route="25" begin="480" end="540" vehsPerHour="16920" speed="107.51" type="hdv" /><flow id="flow_3_388" route="3" begin="480" end="540" vehsPerHour="1500" speed="125.66" type="hdv" /><flow id="flow_4_388" route="4" begin="480" end="540" vehsPerHour="1500" speed="125.66" type="hdv" /><flow id="flow_13_388" route="13" begin="480" end="540" vehsPerHour="10920" speed="111.53" type="hdv" /><flow id="flow_21_388" route="21" begin="480" end="540" vehsPerHour="12120" speed="110.50" type="hdv" /><flow id="flow_11_388" route="11" begin="480" end="540" vehsPerHour="8580" speed="111.30" type="hdv" /><flow id="flow_12_388" route="12" begin="480" end="540" vehsPerHour="8580" speed="111.30" type="hdv" /><flow id="flow_19_388" route="19" begin="480" end="540" vehsPerHour="9780" speed="109.93" type="hdv" /><flow id="flow_20_388" route="20" begin="480" end="540" vehsPerHour="9780" speed="109.93" type="hdv" /><flow id="flow_15_389" route="15" begin="540" end="600" vehsPerHour="1320" speed="89.61" type="hdv" /><flow id="flow_16_389" route="16" begin="540" end="600" vehsPerHour="2520" speed="89.47" type="hdv" /><flow id="flow_27_389" route="27" begin="540" end="600" vehsPerHour="6780" speed="95.39" type="hdv" /><flow id="flow_28_389" route="28" begin="540" end="600" vehsPerHour="7440" speed="94.94" type="hdv" /><flow id="flow_6_389" route="6" begin="540" end="600" vehsPerHour="1200" speed="89.36" type="hdv" /><flow id="flow_24_389" route="24" begin="540" end="600" vehsPerHour="5460" speed="96.25" type="hdv" /><flow id="flow_26_389" route="26" begin="540" end="600" vehsPerHour="6120" speed="95.63" type="hdv" /><flow id="flow_14_389" route="14" begin="540" end="600" vehsPerHour="3360" speed="96.69" type="hdv" /><flow id="flow_17_389" route="17" begin="540" end="600" vehsPerHour="3360" speed="96.69" type="hdv" /><flow id="flow_18_389" route="18" begin="540" end="600" vehsPerHour="4020" speed="95.75" type="hdv" /><flow id="flow_22_389" route="22" begin="540" end="600" vehsPerHour="4020" speed="95.75" type="hdv" /><flow id="flow_1_389" route="1" begin="540" end="600" vehsPerHour="5460" speed="99.94" type="hdv" /><flow id="flow_9_389" route="9" begin="540" end="600" vehsPerHour="7380" speed="101.91" type="hdv" /><flow id="flow_10_389" route="10" begin="540" end="600" vehsPerHour="7380" speed="101.91" type="hdv" /><flow id="flow_23_389" route="23" begin="540" end="600" vehsPerHour="16620" speed="103.64" type="hdv" /><flow id="flow_25_389" route="25" begin="540" end="600" vehsPerHour="17580" speed="101.83" type="hdv" /><flow id="flow_3_389" route="3" begin="540" end="600" vehsPerHour="1920" speed="107.40" type="hdv" /><flow id="flow_4_389" route="4" begin="540" end="600" vehsPerHour="1920" speed="107.40" type="hdv" /><flow id="flow_13_389" route="13" begin="540" end="600" vehsPerHour="11160" speed="105.31" type="hdv" /><flow id="flow_21_389" route="21" begin="540" end="600" vehsPerHour="12120" speed="102.58" type="hdv" /><flow id="flow_11_389" route="11" begin="540" end="600" vehsPerHour="7920" speed="102.40" type="hdv" /><flow id="flow_12_389" route="12" begin="540" end="600" vehsPerHour="7920" speed="102.40" type="hdv" /><flow id="flow_19_389" route="19" begin="540" end="600" vehsPerHour="8880" speed="99.17" type="hdv" /><flow id="flow_20_389" route="20" begin="540" end="600" vehsPerHour="8880" speed="99.17" type="hdv" />

</routes>