<?xml version="1.0" encoding="UTF-8"?>

<!-- generated on 2024-11-25 23:25:18 by Eclipse SUMO netedit Version 1.20.0
<configuration xmlns:xsi="http://www.w3.org/2001/XMLSchema-instance" xsi:noNamespaceSchemaLocation="http://sumo.dlr.de/xsd/neteditConfiguration.xsd">

    <input>
        <sumocfg-file value="sumo.sumocfg"/>
        <additional-files value="abbb_gps.xml"/>
        <route-files value=""/>
        <sumo-net-file value="i24_modded_and_trimmed_CH.net.xml"/>
    </input>

    <output>
        <output-file value="i24_modded_and_trimmed_CH.net.xml"/>
    </output>

    <processing>
        <geometry.min-radius.fix.railways value="false"/>
        <geometry.max-grade.fix value="false"/>
        <offset.disable-normalization value="true"/>
        <lefthand value="0"/>
    </processing>

    <junctions>
        <no-turnarounds value="true"/>
        <junctions.corner-detail value="5"/>
        <junctions.limit-turn-speed value="5.50"/>
        <rectangular-lane-cut value="0"/>
    </junctions>

    <pedestrian>
        <walkingareas value="0"/>
    </pedestrian>

    <netedit>
        <ignore.routeelements value="false"/>
    </netedit>

</configuration>
-->

<net version="1.20" junctionCornerDetail="5" limitTurnSpeed="5.50" xmlns:xsi="http://www.w3.org/2001/XMLSchema-instance" xsi:noNamespaceSchemaLocation="http://sumo.dlr.de/xsd/net_file.xsd">

    <location netOffset="-528756.42,-3984028.56" convBoundary="950.99,791.07,6176.47,5729.18" origBoundary="-86.680829,36.000167,-86.589717,36.064018" projParameter="+proj=utm +zone=16 +ellps=WGS84 +datum=WGS84 +units=m +no_defs"/>

    <type id="highway.motorway" priority="14" numLanes="2" speed="39.44" allow="private emergency authority army vip passenger hov taxi bus coach delivery truck trailer motorcycle evehicle custom1 custom2" oneway="1"/>
    <type id="highway.motorway_link" priority="9" numLanes="1" speed="22.22" allow="private emergency authority army vip passenger hov taxi bus coach delivery truck trailer motorcycle evehicle custom1 custom2" oneway="1"/>

    <edge id=":1138588478-AddedOffRampNode_0" function="internal">
        <lane id=":1138588478-AddedOffRampNode_0_0" index="0" allow="private emergency authority army vip passenger hov taxi bus coach delivery truck trailer motorcycle evehicle custom1 custom2" speed="22.22" length="9.08" shape="3042.61,4238.41 3041.77,4241.12 3042.65,4243.54 3043.49,4245.94 3042.48,4248.60"/>
        <lane id=":1138588478-AddedOffRampNode_0_1" index="1" allow="private emergency authority army vip passenger hov taxi bus coach delivery truck trailer motorcycle evehicle custom1 custom2" speed="22.22" length="9.08" shape="3042.61,4238.41 3041.51,4240.63 3041.41,4242.51 3041.28,4244.35 3040.08,4246.49"/>
        <lane id=":1138588478-AddedOffRampNode_0_2" index="2" allow="private emergency authority army vip passenger hov taxi bus coach delivery truck trailer motorcycle evehicle custom1 custom2" speed="22.22" length="9.08" shape="3042.61,4238.41 3037.67,4244.39"/>
    </edge>
    <edge id=":1241354682_0" function="internal">
        <lane id=":1241354682_0_0" index="0" allow="private emergency authority army vip passenger hov taxi bus coach delivery truck trailer motorcycle evehicle custom1 custom2" speed="26.75" length="3.14" shape="3319.92,3876.83 3320.60,3876.19 3321.06,3875.75 3321.50,3875.29 3322.12,3874.60"/>
    </edge>
    <edge id=":1241354682_1" function="internal">
        <lane id=":1241354682_1_0" index="0" allow="private emergency authority army vip passenger hov taxi bus coach delivery truck trailer motorcycle evehicle custom1 custom2" speed="31.29" length="3.16" shape="3322.38,3879.07 3324.49,3876.74"/>
        <lane id=":1241354682_1_1" index="1" allow="private emergency authority army vip passenger hov taxi bus coach delivery truck trailer motorcycle evehicle custom1 custom2" speed="31.29" length="3.16" shape="3324.75,3881.23 3326.87,3878.89"/>
        <lane id=":1241354682_1_2" index="2" allow="private emergency authority army vip passenger hov taxi bus coach delivery truck trailer motorcycle evehicle custom1 custom2" speed="31.29" length="3.16" shape="3327.12,3883.38 3329.24,3881.04"/>
        <lane id=":1241354682_1_3" index="3" allow="private emergency authority army vip passenger hov taxi bus coach delivery truck trailer motorcycle evehicle custom1 custom2" speed="31.29" length="3.16" shape="3329.49,3885.53 3331.61,3883.18"/>
    </edge>
    <edge id=":1913883940_0" function="internal">
        <lane id=":1913883940_0_0" index="0" allow="private emergency authority army vip passenger hov taxi bus coach delivery truck trailer motorcycle evehicle custom1 custom2" speed="31.29" length="2.88" shape="5852.76,1102.47 5854.88,1100.22"/>
        <lane id=":1913883940_0_1" index="1" allow="private emergency authority army vip passenger hov taxi bus coach delivery truck trailer motorcycle evehicle custom1 custom2" speed="31.29" length="2.88" shape="5855.13,1104.61 5857.16,1102.47"/>
        <lane id=":1913883940_0_2" index="2" allow="private emergency authority army vip passenger hov taxi bus coach delivery truck trailer motorcycle evehicle custom1 custom2" speed="31.29" length="2.88" shape="5857.51,1106.76 5859.44,1104.71"/>
        <lane id=":1913883940_0_3" index="3" allow="private emergency authority army vip passenger hov taxi bus coach delivery truck trailer motorcycle evehicle custom1 custom2" speed="31.29" length="2.88" shape="5859.89,1108.90 5861.72,1106.96"/>
    </edge>
    <edge id=":1913883940_4" function="internal">
        <lane id=":1913883940_4_0" index="0" allow="private emergency authority army vip passenger hov taxi bus coach delivery truck trailer motorcycle evehicle custom1 custom2" speed="26.75" length="3.23" shape="5850.40,1100.35 5852.60,1097.98"/>
    </edge>
    <edge id=":1913883944_0" function="internal">
        <lane id=":1913883944_0_0" index="0" allow="private emergency authority army vip passenger hov taxi bus coach delivery truck trailer motorcycle evehicle custom1 custom2" speed="26.75" length="2.80" shape="5698.78,1325.99 5696.91,1328.08"/>
    </edge>
    <edge id=":1913883944_1" function="internal">
        <lane id=":1913883944_1_0" index="0" allow="private emergency authority army vip passenger hov taxi bus coach delivery truck trailer motorcycle evehicle custom1 custom2" speed="31.29" length="3.02" shape="5696.42,1323.83 5694.47,1325.96"/>
        <lane id=":1913883944_1_1" index="1" allow="private emergency authority army vip passenger hov taxi bus coach delivery truck trailer motorcycle evehicle custom1 custom2" speed="31.29" length="3.02" shape="5694.07,1321.66 5692.06,1323.85"/>
        <lane id=":1913883944_1_2" index="2" allow="private emergency authority army vip passenger hov taxi bus coach delivery truck trailer motorcycle evehicle custom1 custom2" speed="31.29" length="3.02" shape="5691.72,1319.49 5689.65,1321.75"/>
        <lane id=":1913883944_1_3" index="3" allow="private emergency authority army vip passenger hov taxi bus coach delivery truck trailer motorcycle evehicle custom1 custom2" speed="31.29" length="3.02" shape="5689.36,1317.32 5687.23,1319.65"/>
    </edge>
    <edge id=":1913884051_0" function="internal">
        <lane id=":1913884051_0_0" index="0" allow="private emergency authority army vip passenger hov taxi bus coach delivery truck trailer motorcycle evehicle custom1 custom2" speed="26.75" length="3.21" shape="5126.43,1953.71 5124.21,1956.04"/>
    </edge>
    <edge id=":1913884051_1" function="internal">
        <lane id=":1913884051_1_0" index="0" allow="private emergency authority army vip passenger hov taxi bus coach delivery truck trailer motorcycle evehicle custom1 custom2" speed="31.29" length="2.94" shape="5123.92,1951.55 5121.86,1953.87"/>
        <lane id=":1913884051_1_1" index="1" allow="private emergency authority army vip passenger hov taxi bus coach delivery truck trailer motorcycle evehicle custom1 custom2" speed="31.29" length="2.94" shape="5121.49,1949.47 5119.50,1951.71"/>
        <lane id=":1913884051_1_2" index="2" allow="private emergency authority army vip passenger hov taxi bus coach delivery truck trailer motorcycle evehicle custom1 custom2" speed="31.29" length="2.94" shape="5119.06,1947.38 5117.14,1949.54"/>
        <lane id=":1913884051_1_3" index="3" allow="private emergency authority army vip passenger hov taxi bus coach delivery truck trailer motorcycle evehicle custom1 custom2" speed="31.29" length="2.94" shape="5116.63,1945.30 5114.78,1947.38"/>
    </edge>
    <edge id=":19441652#1-AddedOnRampNode_0" function="internal">
        <lane id=":19441652#1-AddedOnRampNode_0_0" index="0" allow="private emergency authority army vip passenger hov taxi bus coach delivery truck trailer motorcycle evehicle custom1 custom2" speed="22.22" length="7.83" shape="2657.46,4543.82 2655.26,4544.55 2653.78,4545.13 2652.35,4545.84 2650.31,4546.94"/>
    </edge>
    <edge id=":202177572_0" function="internal">
        <lane id=":202177572_0_0" index="0" allow="private emergency authority army vip passenger hov taxi bus coach delivery truck trailer motorcycle evehicle custom1 custom2" speed="26.75" length="3.16" shape="3070.80,4202.64 3070.16,4203.32 3069.73,4203.79 3069.32,4204.29 3068.74,4205.03"/>
    </edge>
    <edge id=":202177572_1" function="internal">
        <lane id=":202177572_1_0" index="0" allow="private emergency authority army vip passenger hov taxi bus coach delivery truck trailer motorcycle evehicle custom1 custom2" speed="31.29" length="3.51" shape="3068.49,4200.43 3065.81,4203.08"/>
        <lane id=":202177572_1_1" index="1" allow="private emergency authority army vip passenger hov taxi bus coach delivery truck trailer motorcycle evehicle custom1 custom2" speed="31.29" length="3.51" shape="3066.18,4198.22 3063.62,4200.75"/>
        <lane id=":202177572_1_2" index="2" allow="private emergency authority army vip passenger hov taxi bus coach delivery truck trailer motorcycle evehicle custom1 custom2" speed="31.29" length="3.51" shape="3063.87,4196.00 3061.44,4198.41"/>
        <lane id=":202177572_1_3" index="3" allow="private emergency authority army vip passenger hov taxi bus coach delivery truck trailer motorcycle evehicle custom1 custom2" speed="31.29" length="3.51" shape="3061.55,4193.79 3059.25,4196.08"/>
    </edge>
    <edge id=":202185438_0" function="internal">
        <lane id=":202185438_0_0" index="0" allow="private emergency authority army vip passenger hov taxi bus coach delivery truck trailer motorcycle evehicle custom1 custom2" speed="20.83" length="3.48" shape="2752.89,4531.39 2751.91,4531.06 2751.22,4530.89 2750.52,4530.81 2749.49,4530.77"/>
    </edge>
    <edge id=":202185438_1" function="internal">
        <lane id=":202185438_1_0" index="0" allow="private emergency authority army vip passenger hov taxi bus coach delivery truck trailer motorcycle evehicle custom1 custom2" speed="18.89" length="3.49" shape="2753.01,4527.12 2752.02,4527.41 2751.32,4527.55 2750.61,4527.59 2749.57,4527.57"/>
    </edge>
    <edge id=":202185444_0" function="internal">
        <lane id=":202185444_0_0" index="0" allow="private emergency authority army vip passenger hov taxi bus coach delivery truck trailer motorcycle evehicle custom1 custom2" speed="26.75" length="3.20" shape="2576.76,4586.56 2575.92,4587.01 2575.36,4587.34 2574.82,4587.70 2574.05,4588.24"/>
    </edge>
    <edge id=":202185444_1" function="internal">
        <lane id=":202185444_1_0" index="0" allow="private emergency authority army vip passenger hov taxi bus coach delivery truck trailer motorcycle evehicle custom1 custom2" speed="31.29" length="3.23" shape="2574.81,4583.77 2572.19,4585.64"/>
        <lane id=":202185444_1_1" index="1" allow="private emergency authority army vip passenger hov taxi bus coach delivery truck trailer motorcycle evehicle custom1 custom2" speed="31.29" length="3.23" shape="2572.96,4581.16 2570.33,4583.03"/>
        <lane id=":202185444_1_2" index="2" allow="private emergency authority army vip passenger hov taxi bus coach delivery truck trailer motorcycle evehicle custom1 custom2" speed="31.29" length="3.23" shape="2571.11,4578.56 2568.47,4580.43"/>
        <lane id=":202185444_1_3" index="3" allow="private emergency authority army vip passenger hov taxi bus coach delivery truck trailer motorcycle evehicle custom1 custom2" speed="31.29" length="3.23" shape="2569.25,4575.95 2566.61,4577.82"/>
    </edge>
    <edge id=":202186134_0" function="internal">
        <lane id=":202186134_0_0" index="0" allow="private emergency authority army vip passenger hov taxi bus coach delivery truck trailer motorcycle evehicle custom1 custom2" speed="26.75" length="3.02" shape="2320.03,4722.49 2322.51,4720.77"/>
    </edge>
    <edge id=":202186134_1" function="internal">
        <lane id=":202186134_1_0" index="0" allow="private emergency authority army vip passenger hov taxi bus coach delivery truck trailer motorcycle evehicle custom1 custom2" speed="31.29" length="3.00" shape="2321.91,4725.13 2324.36,4723.38"/>
        <lane id=":202186134_1_1" index="1" allow="private emergency authority army vip passenger hov taxi bus coach delivery truck trailer motorcycle evehicle custom1 custom2" speed="31.29" length="3.00" shape="2323.77,4727.73 2326.22,4725.98"/>
        <lane id=":202186134_1_2" index="2" allow="private emergency authority army vip passenger hov taxi bus coach delivery truck trailer motorcycle evehicle custom1 custom2" speed="31.29" length="3.00" shape="2325.64,4730.33 2328.07,4728.59"/>
        <lane id=":202186134_1_3" index="3" allow="private emergency authority army vip passenger hov taxi bus coach delivery truck trailer motorcycle evehicle custom1 custom2" speed="31.29" length="3.00" shape="2327.50,4732.93 2329.93,4731.20"/>
    </edge>
    <edge id=":202192528_0" function="internal">
        <lane id=":202192528_0_0" index="0" allow="private emergency authority army vip passenger hov taxi bus coach delivery truck trailer motorcycle evehicle custom1 custom2" speed="26.75" length="3.24" shape="1805.94,5134.07 1805.08,5134.50 1804.50,5134.81 1803.94,5135.16 1803.15,5135.71"/>
    </edge>
    <edge id=":202192528_1" function="internal">
        <lane id=":202192528_1_0" index="0" allow="private emergency authority army vip passenger hov taxi bus coach delivery truck trailer motorcycle evehicle custom1 custom2" speed="31.29" length="3.18" shape="1803.99,5131.19 1801.32,5133.08"/>
        <lane id=":202192528_1_1" index="1" allow="private emergency authority army vip passenger hov taxi bus coach delivery truck trailer motorcycle evehicle custom1 custom2" speed="31.29" length="3.18" shape="1802.12,5128.60 1799.50,5130.45"/>
        <lane id=":202192528_1_2" index="2" allow="private emergency authority army vip passenger hov taxi bus coach delivery truck trailer motorcycle evehicle custom1 custom2" speed="31.29" length="3.18" shape="1800.24,5126.00 1797.67,5127.83"/>
        <lane id=":202192528_1_3" index="3" allow="private emergency authority army vip passenger hov taxi bus coach delivery truck trailer motorcycle evehicle custom1 custom2" speed="31.29" length="3.18" shape="1798.37,5123.41 1795.85,5125.20"/>
    </edge>
    <edge id=":202192541_0" function="internal">
        <lane id=":202192541_0_0" index="0" allow="private emergency authority army vip passenger hov taxi bus coach delivery truck trailer motorcycle evehicle custom1 custom2" speed="26.75" length="2.79" shape="2181.03,4868.46 2178.78,4870.13"/>
    </edge>
    <edge id=":202192541_1" function="internal">
        <lane id=":202192541_1_0" index="0" allow="private emergency authority army vip passenger hov taxi bus coach delivery truck trailer motorcycle evehicle custom1 custom2" speed="31.29" length="3.03" shape="2179.17,4865.86 2176.81,4867.53"/>
        <lane id=":202192541_1_1" index="1" allow="private emergency authority army vip passenger hov taxi bus coach delivery truck trailer motorcycle evehicle custom1 custom2" speed="31.29" length="3.03" shape="2177.31,4863.25 2174.87,4864.97"/>
        <lane id=":202192541_1_2" index="2" allow="private emergency authority army vip passenger hov taxi bus coach delivery truck trailer motorcycle evehicle custom1 custom2" speed="31.29" length="3.03" shape="2175.46,4860.65 2172.94,4862.42"/>
        <lane id=":202192541_1_3" index="3" allow="private emergency authority army vip passenger hov taxi bus coach delivery truck trailer motorcycle evehicle custom1 custom2" speed="31.29" length="3.03" shape="2173.60,4858.04 2171.00,4859.87"/>
    </edge>
    <edge id=":202476638_0" function="internal">
        <lane id=":202476638_0_0" index="0" allow="private emergency authority army vip passenger hov taxi bus coach delivery truck trailer motorcycle evehicle custom1 custom2" speed="26.75" length="7.75" shape="5103.87,1925.28 5105.21,1923.48 5105.85,1922.05 5106.45,1920.58 5107.70,1918.70"/>
        <lane id=":202476638_0_1" index="1" allow="private emergency authority army vip passenger hov taxi bus coach delivery truck trailer motorcycle evehicle custom1 custom2" speed="26.75" length="7.75" shape="5106.23,1927.44 5107.61,1925.60 5108.27,1924.13 5108.90,1922.64 5110.18,1920.71"/>
    </edge>
    <edge id=":202476638_2" function="internal">
        <lane id=":202476638_2_0" index="0" allow="private emergency authority army vip passenger hov taxi bus coach delivery truck trailer motorcycle evehicle custom1 custom2" speed="31.29" length="8.03" shape="5106.23,1927.44 5111.57,1921.84"/>
        <lane id=":202476638_2_1" index="1" allow="private emergency authority army vip passenger hov taxi bus coach delivery truck trailer motorcycle evehicle custom1 custom2" speed="31.29" length="8.03" shape="5108.59,1929.60 5114.06,1923.86"/>
        <lane id=":202476638_2_2" index="2" allow="private emergency authority army vip passenger hov taxi bus coach delivery truck trailer motorcycle evehicle custom1 custom2" speed="31.29" length="8.03" shape="5110.95,1931.76 5116.55,1925.87"/>
        <lane id=":202476638_2_3" index="3" allow="private emergency authority army vip passenger hov taxi bus coach delivery truck trailer motorcycle evehicle custom1 custom2" speed="31.29" length="8.03" shape="5113.31,1933.92 5119.04,1927.89"/>
    </edge>
    <edge id=":27828382-AddedOffRampNode_0" function="internal">
        <lane id=":27828382-AddedOffRampNode_0_0" index="0" allow="private emergency authority army vip passenger hov taxi bus coach delivery truck trailer motorcycle evehicle custom1 custom2" speed="31.29" length="8.16" shape="5765.93,1248.35 5764.63,1250.50 5764.40,1252.38 5764.17,1254.26 5762.87,1256.41"/>
        <lane id=":27828382-AddedOffRampNode_0_1" index="1" allow="private emergency authority army vip passenger hov taxi bus coach delivery truck trailer motorcycle evehicle custom1 custom2" speed="31.29" length="8.16" shape="5765.93,1248.35 5760.51,1254.24"/>
        <lane id=":27828382-AddedOffRampNode_0_2" index="2" allow="private emergency authority army vip passenger hov taxi bus coach delivery truck trailer motorcycle evehicle custom1 custom2" speed="31.29" length="8.16" shape="5763.58,1246.18 5758.16,1252.07"/>
        <lane id=":27828382-AddedOffRampNode_0_3" index="3" allow="private emergency authority army vip passenger hov taxi bus coach delivery truck trailer motorcycle evehicle custom1 custom2" speed="31.29" length="8.16" shape="5761.22,1244.01 5755.81,1249.90"/>
        <lane id=":27828382-AddedOffRampNode_0_4" index="4" allow="private emergency authority army vip passenger hov taxi bus coach delivery truck trailer motorcycle evehicle custom1 custom2" speed="31.29" length="8.16" shape="5758.87,1241.85 5753.45,1247.74"/>
    </edge>
    <edge id=":5550966522_0" function="internal">
        <lane id=":5550966522_0_0" index="0" allow="private emergency authority army vip passenger hov taxi bus coach delivery truck trailer motorcycle evehicle custom1 custom2" speed="22.22" length="4.26" shape="1832.51,5033.19 1833.39,5032.29 1833.98,5031.64 1834.49,5030.94 1835.12,5029.85"/>
    </edge>
    <edge id=":5550966522_1" function="internal">
        <lane id=":5550966522_1_0" index="0" allow="private emergency authority army vip passenger hov taxi bus coach delivery truck trailer motorcycle evehicle custom1 custom2" speed="22.22" length="5.83" shape="1834.82,5035.41 1835.93,5034.32 1836.72,5033.59 1837.44,5032.80 1838.35,5031.54"/>
        <lane id=":5550966522_1_1" index="1" allow="private emergency authority army vip passenger hov taxi bus coach delivery truck trailer motorcycle evehicle custom1 custom2" speed="22.22" length="5.83" shape="1837.12,5037.63 1838.35,5036.41 1839.22,5035.59 1840.01,5034.71 1841.01,5033.31"/>
        <lane id=":5550966522_1_2" index="2" allow="private emergency authority army vip passenger hov taxi bus coach delivery truck trailer motorcycle evehicle custom1 custom2" speed="22.22" length="5.83" shape="1839.43,5039.85 1840.78,5038.51 1841.72,5037.60 1842.58,5036.62 1843.68,5035.08"/>
    </edge>
    <edge id=":634155175-AddedOnRampNode_0" function="internal">
        <lane id=":634155175-AddedOnRampNode_0_0" index="0" allow="private emergency authority army vip passenger hov taxi bus coach delivery truck trailer motorcycle evehicle custom1 custom2" speed="31.29" length="7.99" shape="1586.96,5283.96 1580.38,5288.58"/>
        <lane id=":634155175-AddedOnRampNode_0_1" index="1" allow="private emergency authority army vip passenger hov taxi bus coach delivery truck trailer motorcycle evehicle custom1 custom2" speed="31.29" length="7.99" shape="1585.11,5281.35 1578.56,5285.94"/>
        <lane id=":634155175-AddedOnRampNode_0_2" index="2" allow="private emergency authority army vip passenger hov taxi bus coach delivery truck trailer motorcycle evehicle custom1 custom2" speed="31.29" length="7.99" shape="1583.26,5278.74 1576.73,5283.31"/>
        <lane id=":634155175-AddedOnRampNode_0_3" index="3" allow="private emergency authority army vip passenger hov taxi bus coach delivery truck trailer motorcycle evehicle custom1 custom2" speed="31.29" length="7.99" shape="1581.41,5276.13 1574.91,5280.68"/>
    </edge>
    <edge id=":8913055537_0" function="internal">
        <lane id=":8913055537_0_0" index="0" allow="private emergency authority army vip passenger hov taxi bus coach delivery truck trailer motorcycle evehicle custom1 custom2" speed="26.75" length="2.70" shape="2479.04,4605.88 2481.22,4604.30"/>
    </edge>
    <edge id=":8913055537_1" function="internal">
        <lane id=":8913055537_1_0" index="0" allow="private emergency authority army vip passenger hov taxi bus coach delivery truck trailer motorcycle evehicle custom1 custom2" speed="31.29" length="3.02" shape="2480.88,4608.50 2483.18,4606.89"/>
        <lane id=":8913055537_1_1" index="1" allow="private emergency authority army vip passenger hov taxi bus coach delivery truck trailer motorcycle evehicle custom1 custom2" speed="31.29" length="3.02" shape="2482.73,4611.12 2485.11,4609.44"/>
        <lane id=":8913055537_1_2" index="2" allow="private emergency authority army vip passenger hov taxi bus coach delivery truck trailer motorcycle evehicle custom1 custom2" speed="31.29" length="3.02" shape="2484.57,4613.73 2487.04,4611.99"/>
        <lane id=":8913055537_1_3" index="3" allow="private emergency authority army vip passenger hov taxi bus coach delivery truck trailer motorcycle evehicle custom1 custom2" speed="31.29" length="3.02" shape="2486.41,4616.35 2488.98,4614.54"/>
        <lane id=":8913055537_1_4" index="4" allow="private emergency authority army vip passenger hov taxi bus coach delivery truck trailer motorcycle evehicle custom1 custom2" speed="31.29" length="3.02" shape="2488.26,4618.96 2490.91,4617.10"/>
    </edge>
    <edge id=":8913055541_0" function="internal">
        <lane id=":8913055541_0_0" index="0" allow="private emergency authority army vip passenger hov taxi bus coach delivery truck trailer motorcycle evehicle custom1 custom2" speed="22.22" length="8.21" shape="2704.42,4404.80 2705.89,4402.90 2706.61,4401.36 2707.32,4399.82 2708.80,4397.92"/>
        <lane id=":8913055541_0_1" index="1" allow="private emergency authority army vip passenger hov taxi bus coach delivery truck trailer motorcycle evehicle custom1 custom2" speed="22.22" length="8.21" shape="2704.42,4404.80 2706.25,4403.24 2707.76,4402.47 2709.26,4401.69 2711.11,4400.14"/>
    </edge>
    <edge id=":8993543865_0" function="internal">
        <lane id=":8993543865_0_0" index="0" allow="private emergency authority army vip passenger hov taxi bus coach delivery truck trailer motorcycle evehicle custom1 custom2" speed="22.22" length="8.17" shape="5221.73,1777.92 5223.01,1775.93 5223.56,1774.36 5224.09,1772.77 5225.32,1770.74"/>
        <lane id=":8993543865_0_1" index="1" allow="private emergency authority army vip passenger hov taxi bus coach delivery truck trailer motorcycle evehicle custom1 custom2" speed="22.22" length="8.17" shape="5224.21,1779.93 5225.52,1777.92 5226.08,1776.33 5226.62,1774.73 5227.87,1772.67"/>
        <lane id=":8993543865_0_2" index="2" allow="private emergency authority army vip passenger hov taxi bus coach delivery truck trailer motorcycle evehicle custom1 custom2" speed="22.22" length="8.17" shape="5224.21,1779.93 5225.92,1778.22 5227.36,1777.30 5228.77,1776.37 5230.42,1774.60"/>
    </edge>
    <edge id=":9041165758_0" function="internal">
        <lane id=":9041165758_0_0" index="0" allow="private emergency authority army vip passenger hov taxi bus coach delivery truck trailer motorcycle evehicle custom1 custom2" speed="31.29" length="8.16" shape="3304.60,3944.46 3303.31,3946.61 3303.08,3948.49 3302.85,3950.37 3301.56,3952.53"/>
        <lane id=":9041165758_0_1" index="1" allow="private emergency authority army vip passenger hov taxi bus coach delivery truck trailer motorcycle evehicle custom1 custom2" speed="31.29" length="8.16" shape="3304.60,3944.46 3299.20,3950.37"/>
        <lane id=":9041165758_0_2" index="2" allow="private emergency authority army vip passenger hov taxi bus coach delivery truck trailer motorcycle evehicle custom1 custom2" speed="31.29" length="8.16" shape="3302.23,3942.30 3296.84,3948.21"/>
        <lane id=":9041165758_0_3" index="3" allow="private emergency authority army vip passenger hov taxi bus coach delivery truck trailer motorcycle evehicle custom1 custom2" speed="31.29" length="8.16" shape="3299.87,3940.14 3294.47,3946.05"/>
        <lane id=":9041165758_0_4" index="4" allow="private emergency authority army vip passenger hov taxi bus coach delivery truck trailer motorcycle evehicle custom1 custom2" speed="31.29" length="8.16" shape="3297.50,3937.99 3292.11,3943.89"/>
    </edge>
    <edge id=":9041165759_0" function="internal">
        <lane id=":9041165759_0_0" index="0" allow="private emergency authority army vip passenger hov taxi bus coach delivery truck trailer motorcycle evehicle custom1 custom2" speed="31.29" length="8.00" shape="4560.80,2567.69 4555.41,2573.60"/>
        <lane id=":9041165759_0_1" index="1" allow="private emergency authority army vip passenger hov taxi bus coach delivery truck trailer motorcycle evehicle custom1 custom2" speed="31.29" length="8.00" shape="4558.44,2565.54 4553.04,2571.44"/>
        <lane id=":9041165759_0_2" index="2" allow="private emergency authority army vip passenger hov taxi bus coach delivery truck trailer motorcycle evehicle custom1 custom2" speed="31.29" length="8.00" shape="4556.08,2563.38 4550.68,2569.29"/>
        <lane id=":9041165759_0_3" index="3" allow="private emergency authority army vip passenger hov taxi bus coach delivery truck trailer motorcycle evehicle custom1 custom2" speed="31.29" length="8.00" shape="4553.71,2561.22 4548.32,2567.13"/>
    </edge>
    <edge id=":9047712019_0" function="internal">
        <lane id=":9047712019_0_0" index="0" allow="private emergency authority army vip passenger hov taxi bus coach delivery truck trailer motorcycle evehicle custom1 custom2" speed="31.29" length="8.16" shape="1365.80,5407.90 1367.52,5406.09 1368.14,5404.30 1368.75,5402.51 1370.47,5400.68"/>
        <lane id=":9047712019_0_1" index="1" allow="private emergency authority army vip passenger hov taxi bus coach delivery truck trailer motorcycle evehicle custom1 custom2" speed="31.29" length="8.16" shape="1365.80,5407.90 1372.31,5403.30"/>
        <lane id=":9047712019_0_2" index="2" allow="private emergency authority army vip passenger hov taxi bus coach delivery truck trailer motorcycle evehicle custom1 custom2" speed="31.29" length="8.16" shape="1367.62,5410.53 1374.15,5405.91"/>
        <lane id=":9047712019_0_3" index="3" allow="private emergency authority army vip passenger hov taxi bus coach delivery truck trailer motorcycle evehicle custom1 custom2" speed="31.29" length="8.16" shape="1369.45,5413.16 1375.99,5408.53"/>
        <lane id=":9047712019_0_4" index="4" allow="private emergency authority army vip passenger hov taxi bus coach delivery truck trailer motorcycle evehicle custom1 custom2" speed="31.29" length="8.16" shape="1371.28,5415.79 1377.83,5411.15"/>
    </edge>
    <edge id=":9137728500_0" function="internal">
        <lane id=":9137728500_0_0" index="0" allow="private emergency authority army vip passenger hov taxi bus coach delivery truck trailer motorcycle evehicle custom1 custom2" speed="31.29" length="8.21" shape="4760.40,2302.93 4761.83,2300.99 4762.51,2299.44 4763.19,2297.89 4764.62,2295.95"/>
        <lane id=":9137728500_0_1" index="1" allow="private emergency authority army vip passenger hov taxi bus coach delivery truck trailer motorcycle evehicle custom1 custom2" speed="31.29" length="8.21" shape="4760.40,2302.93 4762.20,2301.33 4763.69,2300.52 4765.18,2299.71 4766.98,2298.11"/>