<?xml version='1.0' encoding='UTF-8'?>
<routes>
    
    
    
	<vType id="trial" carFollowModel="Test" maxSpeed="33.754985273472734" minGap="1.9865826126204338" accel="3.0466653512966855" decel="2.8407628417205637" tau="1.5194700473522247" lcStrategic="0.7093501609745403" lcCooperative="0.5958295428510783" lcAssertive="0.4372298978360208" lcSpeedGain="3.033059771569888" lcKeepRight="3.4745560963764546" lcOvertakeRight="0" />

    <route id="ramp" edges="ramp E2 E4" />
	<route id="mainlane" edges="E0 E1 E2 E4 " />
	
    <flow id="mainlane" type="trial" begin="0" end="300" vehsPerHour="5000" route="mainlane" departLane="random" departSpeed="desired" />
    <flow id="ramp_0" type="trial" begin="0" end="300" vehsPerHour="1000" route="ramp" departLane="random" departSpeed="speedLimit" />
</routes>